AeroDyn airfoil file.  Compatible with AeroDyn v13.0.
This file was generated automatically by HARP_Opt version 3.00.00_RC1.
This data represents a 56.9 percent thick airfoil, interpolated between the data in files NACA6_1000.dat and NACA6_0240.dat.
     7         Number of airfoil tables in this file
 2.000         Table ID parameter (Reynolds number in millions)
  0           Control setting
14.178         Stall angle (deg)
  0           Zero lift angle of attack (deg)
  0           Cn slope for zero lift (dimensionless)
  0           Cn at stall value for positive angle of attack
  0           Cn at stall value for negative angle of attack
  0           Angle of attack for minimum CD (deg)
  0           Minimum CD value
-180.000    0.0000    0.1355    -1.8658
-170.000    0.1769    0.1355    -1.8658
-160.000    0.3539    0.1699    -1.8658
-150.000    0.5308    0.2676    -1.8658
-140.000    0.4366    0.3878    -1.8658
-130.000    0.3580    0.5165    -1.8658
-120.000    0.2757    0.6387    -1.8658
-110.000    0.1857    0.7402    -1.8658
-100.000    0.0913    0.8094    -1.8658
-90.000    0.0000    0.8388    -1.8658
-80.000    -0.0913    0.8094    -1.8658
-70.000    -0.1857    0.7402    -1.8658
-60.000    -0.2757    0.6387    -1.8658
-50.000    -0.3580    0.5165    -1.8658
-40.000    -0.4366    0.3878    -1.8658
-30.000    -0.5308    0.2676    -1.8658
-20.000    -0.3846    0.2039    -1.8658
-10.000    -0.3406    0.1402    -2.6403
-9.000    -0.3234    0.1384    -2.5097
-8.000    -0.3063    0.1369    -2.3834
-7.000    -0.2758    0.1362    -2.2380
-6.000    -0.2218    0.1356    -2.0969
-5.000    -0.1604    0.1351    -1.9848
-4.000    -0.0964    0.1347    -1.8797
-3.000    -0.0310    0.1342    -1.8122
-2.000    0.0381    0.1341    -1.8117
-1.000    0.1068    0.1340    -1.8594
0.000    0.1753    0.1341    -1.9099
1.171    0.3164    0.1342    -2.0172
2.334    0.4500    0.1345    -2.1285
3.480    0.5603    0.1355    -2.2492
4.603    0.5997    0.1378    -2.3712
5.695    0.6440    0.1414    -2.5406
6.748    0.6635    0.1473    -2.7325
7.754    0.6806    0.1548    -2.9693
8.708    0.7017    0.1628    -3.2264
9.602    0.7253    0.1706    -3.5040
10.431    0.7441    0.1790    -3.7784
11.188    0.7593    0.1873    -4.0345
11.869    0.7713    0.1951    -4.2724
12.469    0.7830    0.2019    -4.4975
12.983    0.7874    0.2085    -4.6738
13.409    0.7904    0.2141    -4.8177
13.744    0.7919    0.2186    -4.9279
13.984    0.7921    0.2219    -5.0044
14.129    0.7922    0.2239    -5.0505
14.178    0.7922    0.2245    -5.0659
14.283    0.7921    0.2251    -5.0765
14.598    0.7915    0.2268    -5.1080
15.121    0.7906    0.2296    -5.1604
15.848    0.7889    0.2334    -5.2297
16.774    0.7847    0.2385    -5.2971
17.893    0.7796    0.2447    -5.3785
19.197    0.7727    0.2521    -5.4593
20.677    0.7635    0.2609    -5.5168
22.323    0.7544    0.2710    -5.4659
24.125    0.7387    0.2851    -5.0327
26.069    0.7217    0.3002    -4.5653
28.142    0.7036    0.3164    -4.0667
30.330    0.6845    0.3335    -3.5405
32.619    0.6646    0.3514    -2.9901
34.992    0.6439    0.3699    -2.4194
37.434    0.6227    0.3890    -1.8658
39.927    0.6046    0.4098    -1.8658
42.455    0.5861    0.4309    -1.8658
45.000    0.5676    0.4522    -1.8658
50.000    0.5114    0.5165    -1.8658
60.000    0.3938    0.6387    -1.8658
70.000    0.2653    0.7402    -1.8658
80.000    0.1304    0.8094    -1.8658
90.000    0.0000    0.8388    -1.8658
100.000    -0.0913    0.8094    -1.8658
110.000    -0.1857    0.7402    -1.8658
120.000    -0.2757    0.6387    -1.8658
130.000    -0.3580    0.5165    -1.8658
140.000    -0.4366    0.3878    -1.8658
150.000    -0.5308    0.2676    -1.8658
160.000    -0.3539    0.1699    -1.8658
170.000    -0.1769    0.1355    -1.8658
180.000    0.0000    0.1355    -1.8658
EOT 1
 4.000         Table ID parameter (Reynolds number in millions)
  0           Control setting
14.745         Stall angle (deg)
  0           Zero lift angle of attack (deg)
  0           Cn slope for zero lift (dimensionless)
  0           Cn at stall value for positive angle of attack
  0           Cn at stall value for negative angle of attack
  0           Angle of attack for minimum CD (deg)
  0           Minimum CD value
-180.000    0.0000    0.2957    -1.8658
-170.000    0.1854    0.2957    -1.8658
-160.000    0.3709    0.3233    -1.8658
-150.000    0.5564    0.4215    -1.8658
-140.000    0.4522    0.5425    -1.8658
-130.000    0.3671    0.6720    -1.8658
-120.000    0.2806    0.7953    -1.8658
-110.000    0.1878    0.8979    -1.8658
-100.000    0.0918    0.9684    -1.8658
-90.000    0.0000    0.9989    -1.8658
-80.000    -0.0918    0.9684    -1.8658
-70.000    -0.1878    0.8979    -1.8658
-60.000    -0.2806    0.7953    -1.8658
-50.000    -0.3671    0.6720    -1.8658
-40.000    -0.4522    0.5425    -1.8658
-30.000    -0.5564    0.4215    -1.8658
-20.000    -0.4066    0.3602    -1.8658
-10.000    -0.3667    0.2989    -2.6954
-9.000    -0.3400    0.2975    -2.5413
-8.000    -0.3290    0.2963    -2.4225
-7.000    -0.2807    0.2957    -2.2469
-6.000    -0.2217    0.2953    -2.0971
-5.000    -0.1594    0.2949    -1.9837
-4.000    -0.0929    0.2946    -1.8762
-3.000    -0.0257    0.2942    -1.8086
-1.000    0.1124    0.2937    -1.8627
0.000    0.1822    0.2937    -1.9142
1.218    0.3294    0.2938    -2.0270
2.427    0.4637    0.2945    -2.1434
3.620    0.5658    0.2958    -2.2614
4.788    0.6263    0.2978    -2.4248
5.923    0.6624    0.3018    -2.5959
7.018    0.6882    0.3078    -2.8378
8.065    0.7189    0.3145    -3.1307
9.056    0.7490    0.3219    -3.4436
9.986    0.7736    0.3299    -3.7664
10.848    0.7931    0.3384    -4.0710
11.636    0.8050    0.3473    -4.3510
12.344    0.8151    0.3558    -4.6121
12.968    0.8191    0.3638    -4.8289
13.503    0.8258    0.3703    -5.0445
13.946    0.8275    0.3761    -5.2040
14.294    0.8277    0.3808    -5.3222
14.544    0.8279    0.3841    -5.4061
14.694    0.8280    0.3861    -5.4566
14.745    0.8280    0.3868    -5.4735
14.848    0.8279    0.3873    -5.4844
15.157    0.8275    0.3888    -5.5171
15.671    0.8267    0.3914    -5.5714
16.384    0.8257    0.3949    -5.6461
17.293    0.8231    0.3996    -5.7280
18.391    0.8163    0.4057    -5.7965
19.671    0.8033    0.4135    -5.8308
21.124    0.7948    0.4216    -5.8956
22.740    0.7797    0.4338    -5.4863
24.509    0.7631    0.4473    -5.0386
26.417    0.7453    0.4618    -4.5554
28.452    0.7263    0.4772    -4.0400
30.600    0.7062    0.4936    -3.4961
32.847    0.6852    0.5106    -2.9272
35.176    0.6634    0.5283    -2.3373
37.573    0.6419    0.5468    -1.8658
40.020    0.6232    0.5667    -1.8658
42.502    0.6043    0.5869    -1.8658
45.000    0.5853    0.6072    -1.8658
50.000    0.5245    0.6720    -1.8658
60.000    0.4008    0.7953    -1.8658
70.000    0.2683    0.8979    -1.8658
80.000    0.1312    0.9684    -1.8658
90.000    0.0000    0.9989    -1.8658
100.000    -0.0918    0.9684    -1.8658
110.000    -0.1878    0.8979    -1.8658
120.000    -0.2806    0.7953    -1.8658
130.000    -0.3671    0.6720    -1.8658
140.000    -0.4522    0.5425    -1.8658
150.000    -0.5564    0.4215    -1.8658
160.000    -0.3709    0.3233    -1.8658
170.000    -0.1854    0.2957    -1.8658
180.000    0.0000    0.2957    -1.8658
EOT 2
 6.000         Table ID parameter (Reynolds number in millions)
  0           Control setting
14.178         Stall angle (deg)
  0           Zero lift angle of attack (deg)
  0           Cn slope for zero lift (dimensionless)
  0           Cn at stall value for positive angle of attack
  0           Cn at stall value for negative angle of attack
  0           Angle of attack for minimum CD (deg)
  0           Minimum CD value
-180.000    0.0000    0.3087    -1.8658
-170.000    0.1924    0.3087    -1.8658
-160.000    0.3847    0.3312    -1.8658
-150.000    0.5771    0.4298    -1.8658
-140.000    0.4648    0.5512    -1.8658
-130.000    0.3746    0.6815    -1.8658
-120.000    0.2846    0.8055    -1.8658
-110.000    0.1895    0.9090    -1.8658
-100.000    0.0923    0.9804    -1.8658
-90.000    0.0000    1.0119    -1.8658
-80.000    -0.0923    0.9804    -1.8658
-70.000    -0.1895    0.9090    -1.8658
-60.000    -0.2846    0.8055    -1.8658
-50.000    -0.3746    0.6815    -1.8658
-40.000    -0.4648    0.5512    -1.8658
-30.000    -0.5771    0.4298    -1.8658
-20.000    -0.4222    0.3704    -1.8658
-10.000    -0.3818    0.3110    -2.7271
-9.000    -0.3579    0.3098    -2.5742
-8.000    -0.3350    0.3090    -2.4331
-7.000    -0.2817    0.3085    -2.2485
-6.000    -0.2227    0.3080    -2.0985
-5.000    -0.1582    0.3076    -1.9824
-4.000    -0.0914    0.3074    -1.8744
-3.000    -0.0238    0.3071    -1.8074
-2.000    0.0450    0.3067    -1.8157
-1.000    0.1148    0.3065    -1.8641
0.000    0.1845    0.3065    -1.9155
1.171    0.3264    0.3067    -2.0240
2.334    0.4581    0.3072    -2.1361
3.480    0.5608    0.3085    -2.2470
4.603    0.6298    0.3098    -2.4043
5.695    0.6684    0.3131    -2.5740
6.748    0.6967    0.3181    -2.8018
7.754    0.7283    0.3239    -3.0859
8.708    0.7585    0.3303    -3.3866
9.602    0.7837    0.3374    -3.6962
10.431    0.8021    0.3451    -3.9907
11.188    0.8233    0.3519    -4.2922
11.869    0.8349    0.3594    -4.5472
12.469    0.8397    0.3669    -4.7667
12.983    0.8420    0.3736    -4.9512
13.409    0.8447    0.3791    -5.1154
13.744    0.8463    0.3835    -5.2427
13.984    0.8470    0.3867    -5.3310
14.129    0.8474    0.3886    -5.3842
14.178    0.8475    0.3892    -5.4019
14.283    0.8474    0.3898    -5.4147
14.598    0.8471    0.3913    -5.4529
15.121    0.8466    0.3940    -5.5162
15.848    0.8457    0.3977    -5.6024
16.774    0.8433    0.4025    -5.7010
17.893    0.8401    0.4084    -5.8144
19.197    0.8359    0.4153    -5.9372
20.677    0.8301    0.4232    -6.0597
22.323    0.8198    0.4332    -6.0222
24.125    0.8011    0.4474    -5.5221
26.069    0.7808    0.4628    -4.9824
28.142    0.7592    0.4791    -4.4068
30.330    0.7365    0.4964    -3.7993
32.619    0.7126    0.5144    -3.1639
34.992    0.6879    0.5331    -2.5050
37.434    0.6628    0.5524    -1.8658
39.927    0.6420    0.5735    -1.8658
42.455    0.6208    0.5949    -1.8658
45.000    0.5995    0.6164    -1.8658
50.000    0.5351    0.6815    -1.8658
60.000    0.4066    0.8055    -1.8658
70.000    0.2708    0.9090    -1.8658
80.000    0.1318    0.9804    -1.8658
90.000    0.0000    1.0119    -1.8658
100.000    -0.0923    0.9804    -1.8658
110.000    -0.1895    0.9090    -1.8658
120.000    -0.2846    0.8055    -1.8658
130.000    -0.3746    0.6815    -1.8658
140.000    -0.4648    0.5512    -1.8658
150.000    -0.5771    0.4298    -1.8658
160.000    -0.3847    0.3312    -1.8658
170.000    -0.1924    0.3087    -1.8658
180.000    0.0000    0.3087    -1.8658
EOT 3
 8.000         Table ID parameter (Reynolds number in millions)
  0           Control setting
14.178         Stall angle (deg)
  0           Zero lift angle of attack (deg)
  0           Cn slope for zero lift (dimensionless)
  0           Cn at stall value for positive angle of attack
  0           Cn at stall value for negative angle of attack
  0           Angle of attack for minimum CD (deg)
  0           Minimum CD value
-180.000    0.0000    0.3087    -1.8658
-170.000    0.2305    0.3087    -1.8658
-160.000    0.4611    0.3402    -1.8658
-150.000    0.5436    0.4381    -1.8658
-140.000    0.4444    0.5587    -1.8658
-130.000    0.3626    0.6878    -1.8658
-120.000    0.2781    0.8104    -1.8658
-110.000    0.1867    0.9123    -1.8658
-100.000    0.0916    0.9821    -1.8658
-90.000    0.0000    1.0119    -1.8658
-80.000    -0.0916    0.9821    -1.8658
-70.000    -0.1867    0.9123    -1.8658
-60.000    -0.2781    0.8104    -1.8658
-50.000    -0.3626    0.6878    -1.8658
-40.000    -0.4444    0.5587    -1.8658
-30.000    -0.5436    0.4381    -1.8658
-20.000    -0.4764    0.3637    -1.8658
-10.000    -0.3876    0.3107    -2.7437
-9.000    -0.3715    0.3093    -2.5999
-8.000    -0.3397    0.3087    -2.4413
-5.000    -0.1579    0.3075    -1.9821
-4.000    -0.0910    0.3072    -1.8741
-3.000    -0.0225    0.3070    -1.8010
-2.000    0.0462    0.3067    -1.8165
-1.000    0.1160    0.3064    -1.8647
0.000    0.1865    0.3064    -1.9167
1.171    0.3273    0.3066    -2.0248
2.334    0.4575    0.3073    -2.1311
3.480    0.5654    0.3084    -2.2478
4.603    0.6382    0.3095    -2.4143
5.695    0.6720    0.3130    -2.5900
6.748    0.7079    0.3173    -2.8255
7.754    0.7462    0.3225    -3.1339
8.708    0.7786    0.3284    -3.4450
9.602    0.8055    0.3351    -3.7679
10.431    0.8236    0.3425    -4.0658
11.188    0.8380    0.3501    -4.3503
11.869    0.8450    0.3582    -4.5984
12.469    0.8503    0.3655    -4.8158
12.983    0.8523    0.3722    -5.0093
13.409    0.8540    0.3778    -5.1695
13.744    0.8553    0.3821    -5.2953
13.984    0.8563    0.3853    -5.3857
14.129    0.8569    0.3872    -5.4402
14.178    0.8571    0.3878    -5.4585
14.283    0.8570    0.3883    -5.4717
14.598    0.8568    0.3899    -5.5114
15.121    0.8565    0.3925    -5.5773
15.848    0.8545    0.3964    -5.6348
16.774    0.8426    0.4028    -5.5072
17.893    0.8281    0.4105    -5.3531
19.197    0.8113    0.4195    -5.1734
20.677    0.7921    0.4298    -4.9694
22.323    0.7725    0.4416    -4.7194
24.125    0.7559    0.4556    -4.3760
26.069    0.7381    0.4709    -4.0055
28.142    0.7190    0.4871    -3.6103
30.330    0.6989    0.5042    -3.1932
32.619    0.6779    0.5221    -2.7570
34.992    0.6560    0.5407    -2.3046
37.434    0.6338    0.5598    -1.8658
39.927    0.6149    0.5807    -1.8658
42.455    0.5957    0.6019    -1.8658
45.000    0.5764    0.6232    -1.8658
50.000    0.5179    0.6878    -1.8658
60.000    0.3973    0.8104    -1.8658
70.000    0.2668    0.9123    -1.8658
80.000    0.1308    0.9821    -1.8658
90.000    0.0000    1.0119    -1.8658
100.000    -0.0916    0.9821    -1.8658
110.000    -0.1867    0.9123    -1.8658
120.000    -0.2781    0.8104    -1.8658
130.000    -0.3626    0.6878    -1.8658
140.000    -0.4444    0.5587    -1.8658
150.000    -0.5436    0.4381    -1.8658
160.000    -0.4611    0.3402    -1.8658
170.000    -0.2305    0.3087    -1.8658
180.000    0.0000    0.3087    -1.8658
EOT 4
10.000         Table ID parameter (Reynolds number in millions)
  0           Control setting
14.745         Stall angle (deg)
  0           Zero lift angle of attack (deg)
  0           Cn slope for zero lift (dimensionless)
  0           Cn at stall value for positive angle of attack
  0           Cn at stall value for negative angle of attack
  0           Angle of attack for minimum CD (deg)
  0           Minimum CD value
-180.000    0.0000    0.3087    -1.8658
-170.000    0.1989    0.3087    -1.8658
-160.000    0.3979    0.3257    -1.8658
-150.000    0.5969    0.4248    -1.8658
-140.000    0.4768    0.5468    -1.8658
-130.000    0.3817    0.6778    -1.8658
-120.000    0.2884    0.8026    -1.8658
-110.000    0.1912    0.9071    -1.8658
-100.000    0.0927    0.9794    -1.8658
-90.000    0.0000    1.0119    -1.8658
-80.000    -0.0927    0.9794    -1.8658
-70.000    -0.1912    0.9071    -1.8658
-60.000    -0.2884    0.8026    -1.8658
-50.000    -0.3817    0.6778    -1.8658
-40.000    -0.4768    0.5468    -1.8658
-30.000    -0.5969    0.4248    -1.8658
-20.000    -0.4336    0.3677    -1.8658
-10.000    -0.3863    0.3107    -2.7302
-9.000    -0.3885    0.3090    -2.6339
-8.000    -0.3437    0.3085    -2.4485
-6.000    -0.2235    0.3077    -2.1009
-4.000    -0.0905    0.3071    -1.8736
-3.000    -0.0220    0.3069    -1.8018
-2.000    0.0471    0.3067    -1.8169
-1.000    0.1172    0.3064    -1.8654
0.000    0.1873    0.3063    -1.9172
1.218    0.3326    0.3066    -2.0297
2.427    0.4659    0.3074    -2.1371
3.620    0.5818    0.3084    -2.2721
4.788    0.6503    0.3098    -2.4495
5.923    0.6854    0.3134    -2.6295
7.018    0.7288    0.3179    -2.9276
8.065    0.7685    0.3234    -3.2603
9.056    0.8009    0.3299    -3.6011
9.986    0.8242    0.3374    -3.9384
10.848    0.8418    0.3454    -4.2590
11.636    0.8512    0.3542    -4.5444
12.344    0.8589    0.3625    -4.8226
12.968    0.8670    0.3698    -5.0849
13.503    0.8739    0.3761    -5.3100
13.946    0.8766    0.3816    -5.4866
14.294    0.8775    0.3862    -5.6201
14.544    0.8776    0.3895    -5.7121
14.694    0.8776    0.3915    -5.7675
14.745    0.8777    0.3922    -5.7861
14.848    0.8775    0.3927    -5.7983
15.157    0.8771    0.3942    -5.8350
15.671    0.8763    0.3966    -5.8959
16.384    0.8752    0.4001    -5.9798
17.293    0.8720    0.4047    -6.0714
18.391    0.8675    0.4103    -6.1741
19.671    0.8610    0.4171    -6.2786
21.124    0.8526    0.4249    -6.3764
22.740    0.8352    0.4372    -5.9183
24.509    0.8161    0.4508    -5.4172
26.417    0.7956    0.4654    -4.8763
28.452    0.7737    0.4810    -4.2995
30.600    0.7505    0.4975    -3.6906
32.847    0.7263    0.5147    -3.0538
35.176    0.7013    0.5326    -2.3935
37.573    0.6766    0.5512    -1.8658
40.020    0.6558    0.5714    -1.8658
42.502    0.6346    0.5918    -1.8658
45.000    0.6132    0.6123    -1.8658
50.000    0.5453    0.6778    -1.8658
60.000    0.4120    0.8026    -1.8658
70.000    0.2731    0.9071    -1.8658
80.000    0.1324    0.9794    -1.8658
90.000    0.0000    1.0119    -1.8658
100.000    -0.0927    0.9794    -1.8658
110.000    -0.1912    0.9071    -1.8658
120.000    -0.2884    0.8026    -1.8658
130.000    -0.3817    0.6778    -1.8658
140.000    -0.4768    0.5468    -1.8658
150.000    -0.5969    0.4248    -1.8658
160.000    -0.3979    0.3257    -1.8658
170.000    -0.1989    0.3087    -1.8658
180.000    0.0000    0.3087    -1.8658
EOT 5
12.000         Table ID parameter (Reynolds number in millions)
  0           Control setting
14.178         Stall angle (deg)
  0           Zero lift angle of attack (deg)
  0           Cn slope for zero lift (dimensionless)
  0           Cn at stall value for positive angle of attack
  0           Cn at stall value for negative angle of attack
  0           Angle of attack for minimum CD (deg)
  0           Minimum CD value
-180.000    0.0000    0.3087    -1.8658
-170.000    0.2095    0.3087    -1.8658
-160.000    0.4190    0.3276    -1.8658
-150.000    0.5925    0.4264    -1.8658
-140.000    0.4742    0.5484    -1.8658
-130.000    0.3801    0.6791    -1.8658
-120.000    0.2875    0.8036    -1.8658
-110.000    0.1908    0.9077    -1.8658
-100.000    0.0926    0.9798    -1.8658
-90.000    0.0000    1.0119    -1.8658
-80.000    -0.0926    0.9798    -1.8658
-70.000    -0.1908    0.9077    -1.8658
-60.000    -0.2875    0.8036    -1.8658
-50.000    -0.3801    0.6791    -1.8658
-40.000    -0.4742    0.5484    -1.8658
-30.000    -0.5925    0.4264    -1.8658
-20.000    -0.4504    0.3656    -1.8658
-10.000    -0.3938    0.3103    -2.7470
-7.000    -0.2864    0.3080    -2.2565
-6.000    -0.2229    0.3077    -2.0945
-5.000    -0.1577    0.3073    -1.9821
-4.000    -0.0905    0.3071    -1.8733
-3.000    -0.0215    0.3069    -1.8034
-2.000    0.0480    0.3067    -1.8174
-1.000    0.1178    0.3063    -1.8659
0.000    0.1877    0.3063    -1.9173
1.171    0.3279    0.3065    -2.0233
2.334    0.4569    0.3073    -2.1302
3.480    0.5725    0.3082    -2.2561
4.603    0.6461    0.3094    -2.4231
5.695    0.6831    0.3122    -2.5888
6.748    0.7297    0.3160    -2.8715
7.754    0.7668    0.3209    -3.1807
8.708    0.7973    0.3269    -3.5015
9.602    0.8228    0.3334    -3.8246
10.431    0.8416    0.3406    -4.1302
11.188    0.8522    0.3484    -4.4060
11.869    0.8644    0.3556    -4.6836
12.469    0.8765    0.3618    -4.9379
12.983    0.8807    0.3681    -5.1488
13.409    0.8833    0.3735    -5.3229
13.744    0.8848    0.3778    -5.4570
13.984    0.8854    0.3809    -5.5510
14.129    0.8858    0.3828    -5.6076
14.178    0.8859    0.3834    -5.6265
14.283    0.8859    0.3840    -5.6406
14.598    0.8858    0.3855    -5.6830
15.121    0.8856    0.3881    -5.7532
15.848    0.8850    0.3917    -5.8485
16.774    0.8825    0.3964    -5.9567
17.893    0.8788    0.4023    -6.0790
19.197    0.8734    0.4092    -6.2092
20.677    0.8633    0.4177    -6.2551
22.323    0.8416    0.4299    -5.9226
24.125    0.8218    0.4442    -5.4345
26.069    0.8005    0.4595    -4.9077
28.142    0.7778    0.4759    -4.3459
30.330    0.7537    0.4933    -3.7529
32.619    0.7286    0.5114    -3.1328
34.992    0.7026    0.5301    -2.4897
37.434    0.6761    0.5495    -1.8658
39.927    0.6544    0.5707    -1.8658
42.455    0.6324    0.5921    -1.8658
45.000    0.6102    0.6137    -1.8658
50.000    0.5430    0.6791    -1.8658
60.000    0.4108    0.8036    -1.8658
70.000    0.2726    0.9077    -1.8658
80.000    0.1322    0.9798    -1.8658
90.000    0.0000    1.0119    -1.8658
100.000    -0.0926    0.9798    -1.8658
110.000    -0.1908    0.9077    -1.8658
120.000    -0.2875    0.8036    -1.8658
130.000    -0.3801    0.6791    -1.8658
140.000    -0.4742    0.5484    -1.8658
150.000    -0.5925    0.4264    -1.8658
160.000    -0.4190    0.3276    -1.8658
170.000    -0.2095    0.3087    -1.8658
180.000    0.0000    0.3087    -1.8658
EOT 6
14.000         Table ID parameter (Reynolds number in millions)
  0           Control setting
14.178         Stall angle (deg)
  0           Zero lift angle of attack (deg)
  0           Cn slope for zero lift (dimensionless)
  0           Cn at stall value for positive angle of attack
  0           Cn at stall value for negative angle of attack
  0           Angle of attack for minimum CD (deg)
  0           Minimum CD value
-180.000    0.0000    0.3087    -1.8658
-170.000    0.2019    0.3087    -1.8658
-160.000    0.4038    0.3235    -1.8658
-150.000    0.6058    0.4227    -1.8658
-140.000    0.4823    0.5450    -1.8658
-130.000    0.3849    0.6763    -1.8658
-120.000    0.2901    0.8015    -1.8658
-110.000    0.1919    0.9063    -1.8658
-100.000    0.0928    0.9790    -1.8658
-90.000    0.0000    1.0119    -1.8658
-80.000    -0.0928    0.9790    -1.8658
-70.000    -0.1919    0.9063    -1.8658
-60.000    -0.2901    0.8015    -1.8658
-50.000    -0.3849    0.6763    -1.8658
-40.000    -0.4823    0.5450    -1.8658
-30.000    -0.6058    0.4227    -1.8658
-20.000    -0.4434    0.3664    -1.8658
-10.000    -0.4014    0.3101    -2.7630
-9.000    -0.3903    0.3090    -2.6297
-8.000    -0.3475    0.3082    -2.4557
-6.000    -0.2229    0.3076    -2.0931
-5.000    -0.1577    0.3072    -1.9819
-4.000    -0.0904    0.3069    -1.8733
-3.000    -0.0210    0.3068    -1.8036
-2.000    0.0486    0.3066    -1.8178
-1.000    0.1181    0.3063    -1.8660
0.000    0.1883    0.3063    -1.9177
1.171    0.3278    0.3065    -2.0229
2.334    0.4554    0.3073    -2.1305
3.480    0.5746    0.3082    -2.2583
4.603    0.6489    0.3093    -2.4282
5.695    0.6926    0.3122    -2.6323
6.748    0.7363    0.3156    -2.8853
7.754    0.7768    0.3202    -3.2075
8.708    0.8055    0.3262    -3.5271
9.602    0.8286    0.3329    -3.8451
10.431    0.8481    0.3400    -4.1567
11.188    0.8633    0.3473    -4.4588
11.869    0.8769    0.3539    -4.7304
12.469    0.8834    0.3608    -4.9687
12.983    0.8880    0.3671    -5.1858
13.409    0.8903    0.3725    -5.3600
13.744    0.8914    0.3768    -5.4936
13.984    0.8918    0.3800    -5.5869
14.129    0.8920    0.3819    -5.6431
14.178    0.8921    0.3825    -5.6619
14.283    0.8919    0.3831    -5.6754
14.598    0.8914    0.3847    -5.7158
15.121    0.8906    0.3873    -5.7829
15.848    0.8892    0.3910    -5.8747
16.774    0.8868    0.3958    -5.9841
17.893    0.8833    0.4016    -6.1098
19.197    0.8785    0.4084    -6.2460
20.677    0.8719    0.4162    -6.3834
22.323    0.8604    0.4262    -6.3495
24.125    0.8397    0.4405    -5.8100
26.069    0.8175    0.4559    -5.2278
28.142    0.7937    0.4724    -4.6069
30.330    0.7687    0.4897    -3.9515
32.619    0.7425    0.5079    -3.2661
34.992    0.7153    0.5267    -2.5553
37.434    0.6877    0.5462    -1.8658
39.927    0.6652    0.5674    -1.8658
42.455    0.6424    0.5890    -1.8658
45.000    0.6194    0.6107    -1.8658
50.000    0.5499    0.6763    -1.8658
60.000    0.4144    0.8015    -1.8658
70.000    0.2742    0.9063    -1.8658
80.000    0.1326    0.9790    -1.8658
90.000    0.0000    1.0119    -1.8658
100.000    -0.0928    0.9790    -1.8658
110.000    -0.1919    0.9063    -1.8658
120.000    -0.2901    0.8015    -1.8658
130.000    -0.3849    0.6763    -1.8658
140.000    -0.4823    0.5450    -1.8658
150.000    -0.6058    0.4227    -1.8658
160.000    -0.4038    0.3235    -1.8658
170.000    -0.2019    0.3087    -1.8658
180.000    0.0000    0.3087    -1.8658
EOT 7
