AeroDyn airfoil file.  Compatible with AeroDyn v13.0.
This file was generated automatically by HARP_Opt version 3.00.00_RC1.
This data represents a 94.8 percent thick airfoil, interpolated between the data in files NACA6_1000.dat and NACA6_0240.dat.
     7         Number of airfoil tables in this file
 2.000         Table ID parameter (Reynolds number in millions)
  0           Control setting
 1.711         Stall angle (deg)
  0           Zero lift angle of attack (deg)
  0           Cn slope for zero lift (dimensionless)
  0           Cn at stall value for positive angle of attack
  0           Cn at stall value for negative angle of attack
  0           Angle of attack for minimum CD (deg)
  0           Minimum CD value
-180.000    0.0000    0.2802    -2.8632
-170.000    0.0213    0.2802    -2.8632
-160.000    0.0427    0.2843    -2.8632
-150.000    0.0640    0.2961    -2.8632
-140.000    0.0527    0.3106    -2.8632
-130.000    0.0432    0.3261    -2.8632
-120.000    0.0333    0.3409    -2.8632
-110.000    0.0224    0.3531    -2.8632
-100.000    0.0110    0.3615    -2.8632
-90.000    0.0000    0.3650    -2.8632
-80.000    -0.0110    0.3615    -2.8632
-70.000    -0.0224    0.3531    -2.8632
-60.000    -0.0333    0.3409    -2.8632
-50.000    -0.0432    0.3261    -2.8632
-40.000    -0.0527    0.3106    -2.8632
-30.000    -0.0640    0.2961    -2.8632
-20.000    -0.0464    0.2884    -2.8632
-10.000    -0.0411    0.2807    -2.9566
-9.000    -0.0390    0.2805    -2.9408
-8.000    -0.0370    0.2803    -2.9256
-7.000    -0.0333    0.2802    -2.9081
-6.000    -0.0268    0.2802    -2.8910
-5.000    -0.0194    0.2801    -2.8775
-4.000    -0.0116    0.2801    -2.8648
-3.000    -0.0037    0.2800    -2.8567
-2.000    0.0046    0.2800    -2.8566
-1.000    0.0129    0.2800    -2.8624
0.000    0.0212    0.2800    -2.8685
0.141    0.0382    0.2800    -2.8814
0.282    0.0543    0.2800    -2.8949
0.420    0.0676    0.2802    -2.9094
0.555    0.0724    0.2804    -2.9241
0.687    0.0777    0.2809    -2.9446
0.814    0.0801    0.2816    -2.9677
0.936    0.0821    0.2825    -2.9963
1.051    0.0847    0.2834    -3.0273
1.159    0.0875    0.2844    -3.0608
1.258    0.0898    0.2854    -3.0939
1.350    0.0916    0.2864    -3.1248
1.432    0.0931    0.2873    -3.1535
1.504    0.0945    0.2882    -3.1807
1.566    0.0950    0.2890    -3.2019
1.618    0.0954    0.2896    -3.2193
1.658    0.0955    0.2902    -3.2326
1.687    0.0956    0.2906    -3.2418
1.705    0.0956    0.2908    -3.2474
1.711    0.0956    0.2909    -3.2493
1.858    0.0956    0.2910    -3.2505
2.301    0.0955    0.2912    -3.2543
3.035    0.0954    0.2915    -3.2606
4.056    0.0952    0.2920    -3.2690
5.357    0.0947    0.2926    -3.2771
6.928    0.0941    0.2933    -3.2870
8.760    0.0932    0.2942    -3.2967
10.839    0.0921    0.2953    -3.3037
13.151    0.0910    0.2965    -3.2975
15.681    0.0891    0.2982    -3.2452
18.411    0.0871    0.3000    -3.1888
21.323    0.0849    0.3020    -3.1287
24.396    0.0826    0.3040    -3.0652
27.611    0.0802    0.3062    -2.9988
30.944    0.0777    0.3084    -2.9300
34.373    0.0751    0.3107    -2.8632
37.875    0.0729    0.3133    -2.8632
41.425    0.0707    0.3158    -2.8632
45.000    0.0685    0.3184    -2.8632
50.000    0.0617    0.3261    -2.8632
60.000    0.0475    0.3409    -2.8632
70.000    0.0320    0.3531    -2.8632
80.000    0.0157    0.3615    -2.8632
90.000    0.0000    0.3650    -2.8632
100.000    -0.0110    0.3615    -2.8632
110.000    -0.0224    0.3531    -2.8632
120.000    -0.0333    0.3409    -2.8632
130.000    -0.0432    0.3261    -2.8632
140.000    -0.0527    0.3106    -2.8632
150.000    -0.0640    0.2961    -2.8632
160.000    -0.0427    0.2843    -2.8632
170.000    -0.0213    0.2802    -2.8632
180.000    0.0000    0.2802    -2.8632
EOT 1
 4.000         Table ID parameter (Reynolds number in millions)
  0           Control setting
 1.779         Stall angle (deg)
  0           Zero lift angle of attack (deg)
  0           Cn slope for zero lift (dimensionless)
  0           Cn at stall value for positive angle of attack
  0           Cn at stall value for negative angle of attack
  0           Angle of attack for minimum CD (deg)
  0           Minimum CD value
-180.000    0.0000    0.6248    -2.8632
-170.000    0.0224    0.6248    -2.8632
-160.000    0.0448    0.6282    -2.8632
-150.000    0.0671    0.6400    -2.8632
-140.000    0.0546    0.6546    -2.8632
-130.000    0.0443    0.6702    -2.8632
-120.000    0.0339    0.6851    -2.8632
-110.000    0.0227    0.6975    -2.8632
-100.000    0.0111    0.7060    -2.8632
-90.000    0.0000    0.7097    -2.8632
-80.000    -0.0111    0.7060    -2.8632
-70.000    -0.0227    0.6975    -2.8632
-60.000    -0.0339    0.6851    -2.8632
-50.000    -0.0443    0.6702    -2.8632
-40.000    -0.0546    0.6546    -2.8632
-30.000    -0.0671    0.6400    -2.8632
-20.000    -0.0491    0.6326    -2.8632
-10.000    -0.0442    0.6252    -2.9633
-9.000    -0.0410    0.6251    -2.9447
-8.000    -0.0397    0.6249    -2.9303
-7.000    -0.0339    0.6248    -2.9091
-6.000    -0.0268    0.6248    -2.8911
-5.000    -0.0192    0.6247    -2.8774
-4.000    -0.0112    0.6247    -2.8644
-3.000    -0.0031    0.6247    -2.8563
-1.000    0.0136    0.6246    -2.8628
0.000    0.0220    0.6246    -2.8690
0.147    0.0397    0.6246    -2.8826
0.293    0.0559    0.6247    -2.8967
0.437    0.0683    0.6249    -2.9109
0.578    0.0756    0.6251    -2.9306
0.715    0.0799    0.6256    -2.9512
0.847    0.0830    0.6263    -2.9804
0.973    0.0867    0.6271    -3.0158
1.093    0.0904    0.6280    -3.0535
1.205    0.0933    0.6290    -3.0925
1.309    0.0957    0.6300    -3.1292
1.404    0.0971    0.6311    -3.1630
1.489    0.0983    0.6321    -3.1945
1.565    0.0988    0.6331    -3.2207
1.629    0.0996    0.6338    -3.2467
1.683    0.0998    0.6345    -3.2659
1.725    0.0999    0.6351    -3.2802
1.755    0.0999    0.6355    -3.2903
1.773    0.0999    0.6357    -3.2964
1.779    0.0999    0.6358    -3.2984
1.927    0.0999    0.6359    -3.2997
2.368    0.0998    0.6361    -3.3037
3.102    0.0997    0.6364    -3.3102
4.121    0.0996    0.6368    -3.3192
5.419    0.0993    0.6374    -3.3291
6.988    0.0985    0.6381    -3.3374
8.817    0.0969    0.6391    -3.3415
10.893    0.0959    0.6400    -3.3494
13.201    0.0941    0.6415    -3.3000
15.727    0.0921    0.6431    -3.2460
18.453    0.0899    0.6449    -3.1877
21.360    0.0876    0.6467    -3.1255
24.429    0.0852    0.6487    -3.0599
27.638    0.0827    0.6508    -2.9912
30.966    0.0800    0.6529    -2.9200
34.390    0.0774    0.6551    -2.8632
37.886    0.0752    0.6575    -2.8632
41.431    0.0729    0.6600    -2.8632
45.000    0.0706    0.6624    -2.8632
50.000    0.0633    0.6702    -2.8632
60.000    0.0484    0.6851    -2.8632
70.000    0.0324    0.6975    -2.8632
80.000    0.0158    0.7060    -2.8632
90.000    0.0000    0.7097    -2.8632
100.000    -0.0111    0.7060    -2.8632
110.000    -0.0227    0.6975    -2.8632
120.000    -0.0339    0.6851    -2.8632
130.000    -0.0443    0.6702    -2.8632
140.000    -0.0546    0.6546    -2.8632
150.000    -0.0671    0.6400    -2.8632
160.000    -0.0448    0.6282    -2.8632
170.000    -0.0224    0.6248    -2.8632
180.000    0.0000    0.6248    -2.8632
EOT 2
 6.000         Table ID parameter (Reynolds number in millions)
  0           Control setting
 1.711         Stall angle (deg)
  0           Zero lift angle of attack (deg)
  0           Cn slope for zero lift (dimensionless)
  0           Cn at stall value for positive angle of attack
  0           Cn at stall value for negative angle of attack
  0           Angle of attack for minimum CD (deg)
  0           Minimum CD value
-180.000    0.0000    0.6528    -2.8632
-170.000    0.0232    0.6528    -2.8632
-160.000    0.0464    0.6555    -2.8632
-150.000    0.0696    0.6674    -2.8632
-140.000    0.0561    0.6821    -2.8632
-130.000    0.0452    0.6978    -2.8632
-120.000    0.0343    0.7127    -2.8632
-110.000    0.0229    0.7252    -2.8632
-100.000    0.0111    0.7338    -2.8632
-90.000    0.0000    0.7376    -2.8632
-80.000    -0.0111    0.7338    -2.8632
-70.000    -0.0229    0.7252    -2.8632
-60.000    -0.0343    0.7127    -2.8632
-50.000    -0.0452    0.6978    -2.8632
-40.000    -0.0561    0.6821    -2.8632
-30.000    -0.0696    0.6674    -2.8632
-20.000    -0.0509    0.6602    -2.8632
-10.000    -0.0461    0.6531    -2.9671
-9.000    -0.0432    0.6529    -2.9486
-8.000    -0.0404    0.6528    -2.9316
-7.000    -0.0340    0.6528    -2.9093
-6.000    -0.0269    0.6527    -2.8912
-5.000    -0.0191    0.6527    -2.8772
-4.000    -0.0110    0.6526    -2.8642
-3.000    -0.0029    0.6526    -2.8561
-2.000    0.0054    0.6525    -2.8571
-1.000    0.0139    0.6525    -2.8630
0.000    0.0223    0.6525    -2.8692
0.141    0.0394    0.6525    -2.8822
0.282    0.0553    0.6526    -2.8958
0.420    0.0677    0.6528    -2.9092
0.555    0.0760    0.6529    -2.9281
0.687    0.0806    0.6533    -2.9486
0.814    0.0841    0.6539    -2.9761
0.936    0.0879    0.6546    -3.0104
1.051    0.0915    0.6554    -3.0466
1.159    0.0946    0.6562    -3.0840
1.258    0.0968    0.6572    -3.1195
1.350    0.0993    0.6580    -3.1559
1.432    0.1007    0.6589    -3.1867
1.504    0.1013    0.6598    -3.2132
1.566    0.1016    0.6606    -3.2354
1.618    0.1019    0.6613    -3.2552
1.658    0.1021    0.6618    -3.2706
1.687    0.1022    0.6622    -3.2812
1.705    0.1022    0.6624    -3.2876
1.711    0.1022    0.6625    -3.2898
1.858    0.1022    0.6626    -3.2913
2.301    0.1022    0.6628    -3.2959
3.035    0.1021    0.6631    -3.3036
4.056    0.1020    0.6635    -3.3140
5.357    0.1017    0.6641    -3.3259
6.928    0.1014    0.6648    -3.3396
8.760    0.1008    0.6657    -3.3544
10.839    0.1001    0.6666    -3.3691
13.151    0.0989    0.6678    -3.3646
15.681    0.0966    0.6695    -3.3043
18.411    0.0942    0.6714    -3.2392
21.323    0.0916    0.6733    -3.1697
24.396    0.0889    0.6754    -3.0964
27.611    0.0860    0.6776    -3.0198
30.944    0.0830    0.6799    -2.9403
34.373    0.0800    0.6822    -2.8632
37.875    0.0775    0.6847    -2.8632
41.425    0.0749    0.6873    -2.8632
45.000    0.0723    0.6899    -2.8632
50.000    0.0646    0.6978    -2.8632
60.000    0.0491    0.7127    -2.8632
70.000    0.0327    0.7252    -2.8632
80.000    0.0159    0.7338    -2.8632
90.000    0.0000    0.7376    -2.8632
100.000    -0.0111    0.7338    -2.8632
110.000    -0.0229    0.7252    -2.8632
120.000    -0.0343    0.7127    -2.8632
130.000    -0.0452    0.6978    -2.8632
140.000    -0.0561    0.6821    -2.8632
150.000    -0.0696    0.6674    -2.8632
160.000    -0.0464    0.6555    -2.8632
170.000    -0.0232    0.6528    -2.8632
180.000    0.0000    0.6528    -2.8632
EOT 3
 8.000         Table ID parameter (Reynolds number in millions)
  0           Control setting
 1.711         Stall angle (deg)
  0           Zero lift angle of attack (deg)
  0           Cn slope for zero lift (dimensionless)
  0           Cn at stall value for positive angle of attack
  0           Cn at stall value for negative angle of attack
  0           Angle of attack for minimum CD (deg)
  0           Minimum CD value
-180.000    0.0000    0.6528    -2.8632
-170.000    0.0278    0.6528    -2.8632
-160.000    0.0556    0.6566    -2.8632
-150.000    0.0656    0.6684    -2.8632
-140.000    0.0536    0.6829    -2.8632
-130.000    0.0437    0.6985    -2.8632
-120.000    0.0336    0.7133    -2.8632
-110.000    0.0225    0.7256    -2.8632
-100.000    0.0110    0.7340    -2.8632
-90.000    0.0000    0.7376    -2.8632
-80.000    -0.0110    0.7340    -2.8632
-70.000    -0.0225    0.7256    -2.8632
-60.000    -0.0336    0.7133    -2.8632
-50.000    -0.0437    0.6985    -2.8632
-40.000    -0.0536    0.6829    -2.8632
-30.000    -0.0656    0.6684    -2.8632
-20.000    -0.0575    0.6594    -2.8632
-10.000    -0.0468    0.6530    -2.9691
-9.000    -0.0448    0.6529    -2.9517
-8.000    -0.0410    0.6528    -2.9326
-5.000    -0.0191    0.6526    -2.8772
-4.000    -0.0110    0.6526    -2.8642
-3.000    -0.0027    0.6526    -2.8553
-2.000    0.0056    0.6525    -2.8572
-1.000    0.0140    0.6525    -2.8630
0.000    0.0225    0.6525    -2.8693
0.141    0.0395    0.6525    -2.8823
0.282    0.0552    0.6526    -2.8952
0.420    0.0682    0.6528    -2.9092
0.555    0.0770    0.6529    -2.9293
0.687    0.0811    0.6533    -2.9505
0.814    0.0854    0.6538    -2.9789
0.936    0.0900    0.6545    -3.0162
1.051    0.0939    0.6552    -3.0537
1.159    0.0972    0.6560    -3.0926
1.258    0.0994    0.6569    -3.1286
1.350    0.1011    0.6578    -3.1629
1.432    0.1019    0.6588    -3.1928
1.504    0.1026    0.6596    -3.2191
1.566    0.1028    0.6605    -3.2424
1.618    0.1030    0.6611    -3.2617
1.658    0.1032    0.6617    -3.2769
1.687    0.1033    0.6620    -3.2878
1.705    0.1034    0.6623    -3.2944
1.711    0.1034    0.6623    -3.2966
1.858    0.1034    0.6624    -3.2982
2.301    0.1034    0.6626    -3.3030
3.035    0.1033    0.6629    -3.3109
4.056    0.1031    0.6634    -3.3179
5.357    0.1017    0.6641    -3.3025
6.928    0.0999    0.6651    -3.2839
8.760    0.0979    0.6662    -3.2622
10.839    0.0956    0.6674    -3.2376
13.151    0.0932    0.6688    -3.2074
15.681    0.0912    0.6705    -3.1660
18.411    0.0890    0.6724    -3.1213
21.323    0.0867    0.6743    -3.0736
24.396    0.0843    0.6764    -3.0233
27.611    0.0818    0.6785    -2.9707
30.944    0.0792    0.6808    -2.9161
34.373    0.0765    0.6831    -2.8632
37.875    0.0742    0.6856    -2.8632
41.425    0.0719    0.6882    -2.8632
45.000    0.0695    0.6907    -2.8632
50.000    0.0625    0.6985    -2.8632
60.000    0.0479    0.7133    -2.8632
70.000    0.0322    0.7256    -2.8632
80.000    0.0158    0.7340    -2.8632
90.000    0.0000    0.7376    -2.8632
100.000    -0.0110    0.7340    -2.8632
110.000    -0.0225    0.7256    -2.8632
120.000    -0.0336    0.7133    -2.8632
130.000    -0.0437    0.6985    -2.8632
140.000    -0.0536    0.6829    -2.8632
150.000    -0.0656    0.6684    -2.8632
160.000    -0.0556    0.6566    -2.8632
170.000    -0.0278    0.6528    -2.8632
180.000    0.0000    0.6528    -2.8632
EOT 4
10.000         Table ID parameter (Reynolds number in millions)
  0           Control setting
 1.779         Stall angle (deg)
  0           Zero lift angle of attack (deg)
  0           Cn slope for zero lift (dimensionless)
  0           Cn at stall value for positive angle of attack
  0           Cn at stall value for negative angle of attack
  0           Angle of attack for minimum CD (deg)
  0           Minimum CD value
-180.000    0.0000    0.6528    -2.8632
-170.000    0.0240    0.6528    -2.8632
-160.000    0.0480    0.6548    -2.8632
-150.000    0.0720    0.6668    -2.8632
-140.000    0.0575    0.6815    -2.8632
-130.000    0.0461    0.6973    -2.8632
-120.000    0.0348    0.7124    -2.8632
-110.000    0.0231    0.7250    -2.8632
-100.000    0.0112    0.7337    -2.8632
-90.000    0.0000    0.7376    -2.8632
-80.000    -0.0112    0.7337    -2.8632
-70.000    -0.0231    0.7250    -2.8632
-60.000    -0.0348    0.7124    -2.8632
-50.000    -0.0461    0.6973    -2.8632
-40.000    -0.0575    0.6815    -2.8632
-30.000    -0.0720    0.6668    -2.8632
-20.000    -0.0523    0.6599    -2.8632
-10.000    -0.0466    0.6530    -2.9675
-9.000    -0.0469    0.6528    -2.9558
-8.000    -0.0415    0.6528    -2.9335
-6.000    -0.0270    0.6527    -2.8915
-4.000    -0.0109    0.6526    -2.8641
-3.000    -0.0027    0.6526    -2.8554
-2.000    0.0057    0.6525    -2.8573
-1.000    0.0141    0.6525    -2.8631
0.000    0.0226    0.6525    -2.8694
0.147    0.0401    0.6525    -2.8829
0.293    0.0562    0.6526    -2.8959
0.437    0.0702    0.6528    -2.9122
0.578    0.0785    0.6529    -2.9336
0.715    0.0827    0.6534    -2.9553
0.847    0.0879    0.6539    -2.9913
0.973    0.0927    0.6546    -3.0314
1.093    0.0966    0.6553    -3.0725
1.205    0.0994    0.6563    -3.1132
1.309    0.1016    0.6572    -3.1519
1.404    0.1027    0.6583    -3.1863
1.489    0.1036    0.6593    -3.2199
1.565    0.1046    0.6602    -3.2515
1.629    0.1054    0.6609    -3.2787
1.683    0.1058    0.6616    -3.3000
1.725    0.1059    0.6621    -3.3161
1.755    0.1059    0.6625    -3.3272
1.773    0.1059    0.6628    -3.3339
1.779    0.1059    0.6629    -3.3361
1.927    0.1059    0.6629    -3.3376
2.368    0.1058    0.6631    -3.3420
3.102    0.1057    0.6634    -3.3494
4.121    0.1056    0.6638    -3.3595
5.419    0.1052    0.6644    -3.3706
6.988    0.1047    0.6650    -3.3830
8.817    0.1039    0.6659    -3.3956
10.893    0.1029    0.6668    -3.4074
13.201    0.1008    0.6683    -3.3521
15.727    0.0985    0.6699    -3.2916
18.453    0.0960    0.6717    -3.2264
21.360    0.0933    0.6736    -3.1568
24.429    0.0906    0.6756    -3.0833
27.638    0.0876    0.6776    -3.0065
30.966    0.0846    0.6798    -2.9268
34.390    0.0816    0.6821    -2.8632
37.886    0.0791    0.6845    -2.8632
41.431    0.0766    0.6869    -2.8632
45.000    0.0740    0.6894    -2.8632
50.000    0.0658    0.6973    -2.8632
60.000    0.0497    0.7124    -2.8632
70.000    0.0330    0.7250    -2.8632
80.000    0.0160    0.7337    -2.8632
90.000    0.0000    0.7376    -2.8632
100.000    -0.0112    0.7337    -2.8632
110.000    -0.0231    0.7250    -2.8632
120.000    -0.0348    0.7124    -2.8632
130.000    -0.0461    0.6973    -2.8632
140.000    -0.0575    0.6815    -2.8632
150.000    -0.0720    0.6668    -2.8632
160.000    -0.0480    0.6548    -2.8632
170.000    -0.0240    0.6528    -2.8632
180.000    0.0000    0.6528    -2.8632
EOT 5
12.000         Table ID parameter (Reynolds number in millions)
  0           Control setting
 1.711         Stall angle (deg)
  0           Zero lift angle of attack (deg)
  0           Cn slope for zero lift (dimensionless)
  0           Cn at stall value for positive angle of attack
  0           Cn at stall value for negative angle of attack
  0           Angle of attack for minimum CD (deg)
  0           Minimum CD value
-180.000    0.0000    0.6528    -2.8632
-170.000    0.0253    0.6528    -2.8632
-160.000    0.0506    0.6551    -2.8632
-150.000    0.0715    0.6670    -2.8632
-140.000    0.0572    0.6817    -2.8632
-130.000    0.0459    0.6975    -2.8632
-120.000    0.0347    0.7125    -2.8632
-110.000    0.0230    0.7251    -2.8632
-100.000    0.0112    0.7338    -2.8632
-90.000    0.0000    0.7376    -2.8632
-80.000    -0.0112    0.7338    -2.8632
-70.000    -0.0230    0.7251    -2.8632
-60.000    -0.0347    0.7125    -2.8632
-50.000    -0.0459    0.6975    -2.8632
-40.000    -0.0572    0.6817    -2.8632
-30.000    -0.0715    0.6670    -2.8632
-20.000    -0.0543    0.6597    -2.8632
-10.000    -0.0475    0.6530    -2.9695
-7.000    -0.0346    0.6527    -2.9103
-6.000    -0.0269    0.6527    -2.8908
-5.000    -0.0190    0.6526    -2.8772
-4.000    -0.0109    0.6526    -2.8641
-3.000    -0.0026    0.6526    -2.8556
-2.000    0.0058    0.6525    -2.8573
-1.000    0.0142    0.6525    -2.8632
0.000    0.0226    0.6525    -2.8694
0.141    0.0396    0.6525    -2.8822
0.282    0.0551    0.6526    -2.8951
0.420    0.0691    0.6527    -2.9102
0.555    0.0780    0.6529    -2.9304
0.687    0.0824    0.6532    -2.9504
0.814    0.0880    0.6537    -2.9845
0.936    0.0925    0.6543    -3.0218
1.051    0.0962    0.6550    -3.0605
1.159    0.0993    0.6558    -3.0995
1.258    0.1015    0.6566    -3.1364
1.350    0.1028    0.6576    -3.1696
1.432    0.1043    0.6584    -3.2031
1.504    0.1058    0.6592    -3.2338
1.566    0.1063    0.6600    -3.2593
1.618    0.1066    0.6606    -3.2803
1.658    0.1067    0.6611    -3.2964
1.687    0.1068    0.6615    -3.3078
1.705    0.1069    0.6617    -3.3146
1.711    0.1069    0.6618    -3.3169
1.858    0.1069    0.6619    -3.3186
2.301    0.1069    0.6621    -3.3237
3.035    0.1068    0.6624    -3.3322
4.056    0.1068    0.6628    -3.3437
5.357    0.1065    0.6634    -3.3567
6.928    0.1060    0.6641    -3.3715
8.760    0.1054    0.6649    -3.3872
10.839    0.1042    0.6659    -3.3927
13.151    0.1015    0.6674    -3.3526
15.681    0.0992    0.6691    -3.2937
18.411    0.0966    0.6710    -3.2302
21.323    0.0938    0.6730    -3.1624
24.396    0.0909    0.6751    -3.0908
27.611    0.0879    0.6772    -3.0160
30.944    0.0848    0.6795    -2.9384
34.373    0.0816    0.6818    -2.8632
37.875    0.0790    0.6844    -2.8632
41.425    0.0763    0.6870    -2.8632
45.000    0.0736    0.6896    -2.8632
50.000    0.0655    0.6975    -2.8632
60.000    0.0496    0.7125    -2.8632
70.000    0.0329    0.7251    -2.8632
80.000    0.0160    0.7338    -2.8632
90.000    0.0000    0.7376    -2.8632
100.000    -0.0112    0.7338    -2.8632
110.000    -0.0230    0.7251    -2.8632
120.000    -0.0347    0.7125    -2.8632
130.000    -0.0459    0.6975    -2.8632
140.000    -0.0572    0.6817    -2.8632
150.000    -0.0715    0.6670    -2.8632
160.000    -0.0506    0.6551    -2.8632
170.000    -0.0253    0.6528    -2.8632
180.000    0.0000    0.6528    -2.8632
EOT 6
14.000         Table ID parameter (Reynolds number in millions)
  0           Control setting
 1.711         Stall angle (deg)
  0           Zero lift angle of attack (deg)
  0           Cn slope for zero lift (dimensionless)
  0           Cn at stall value for positive angle of attack
  0           Cn at stall value for negative angle of attack
  0           Angle of attack for minimum CD (deg)
  0           Minimum CD value
-180.000    0.0000    0.6528    -2.8632
-170.000    0.0244    0.6528    -2.8632
-160.000    0.0487    0.6546    -2.8632
-150.000    0.0731    0.6665    -2.8632
-140.000    0.0582    0.6813    -2.8632
-130.000    0.0464    0.6971    -2.8632
-120.000    0.0350    0.7122    -2.8632
-110.000    0.0232    0.7249    -2.8632
-100.000    0.0112    0.7337    -2.8632
-90.000    0.0000    0.7376    -2.8632
-80.000    -0.0112    0.7337    -2.8632
-70.000    -0.0232    0.7249    -2.8632
-60.000    -0.0350    0.7122    -2.8632
-50.000    -0.0464    0.6971    -2.8632
-40.000    -0.0582    0.6813    -2.8632
-30.000    -0.0731    0.6665    -2.8632
-20.000    -0.0535    0.6597    -2.8632
-10.000    -0.0484    0.6530    -2.9714
-9.000    -0.0471    0.6528    -2.9553
-8.000    -0.0419    0.6527    -2.9343
-6.000    -0.0269    0.6527    -2.8906
-5.000    -0.0190    0.6526    -2.8772
-4.000    -0.0109    0.6526    -2.8641
-3.000    -0.0025    0.6526    -2.8557
-2.000    0.0059    0.6525    -2.8574
-1.000    0.0143    0.6525    -2.8632
0.000    0.0227    0.6525    -2.8694
0.141    0.0396    0.6525    -2.8821
0.282    0.0549    0.6526    -2.8951
0.420    0.0693    0.6527    -2.9105
0.555    0.0783    0.6529    -2.9310
0.687    0.0836    0.6532    -2.9556
0.814    0.0888    0.6536    -2.9862
0.936    0.0937    0.6542    -3.0250
1.051    0.0972    0.6549    -3.0636
1.159    0.1000    0.6557    -3.1020
1.258    0.1023    0.6566    -3.1396
1.350    0.1042    0.6574    -3.1760
1.432    0.1058    0.6582    -3.2088
1.504    0.1066    0.6591    -3.2375
1.566    0.1071    0.6598    -3.2637
1.618    0.1074    0.6605    -3.2847
1.658    0.1075    0.6610    -3.3008
1.687    0.1076    0.6614    -3.3121
1.705    0.1076    0.6616    -3.3189
1.711    0.1076    0.6617    -3.3212
1.858    0.1076    0.6618    -3.3228
2.301    0.1075    0.6620    -3.3277
3.035    0.1074    0.6623    -3.3358
4.056    0.1073    0.6627    -3.3468
5.357    0.1070    0.6633    -3.3600
6.928    0.1066    0.6640    -3.3752
8.760    0.1060    0.6648    -3.3916
10.839    0.1052    0.6658    -3.4082
13.151    0.1038    0.6670    -3.4041
15.681    0.1013    0.6687    -3.3390
18.411    0.0986    0.6706    -3.2688
21.323    0.0958    0.6725    -3.1939
24.396    0.0927    0.6746    -3.1148
27.611    0.0896    0.6768    -3.0321
30.944    0.0863    0.6791    -2.9464
34.373    0.0830    0.6814    -2.8632
37.875    0.0803    0.6840    -2.8632
41.425    0.0775    0.6866    -2.8632
45.000    0.0747    0.6892    -2.8632
50.000    0.0663    0.6971    -2.8632
60.000    0.0500    0.7122    -2.8632
70.000    0.0331    0.7249    -2.8632
80.000    0.0160    0.7337    -2.8632
90.000    0.0000    0.7376    -2.8632
100.000    -0.0112    0.7337    -2.8632
110.000    -0.0232    0.7249    -2.8632
120.000    -0.0350    0.7122    -2.8632
130.000    -0.0464    0.6971    -2.8632
140.000    -0.0582    0.6813    -2.8632
150.000    -0.0731    0.6665    -2.8632
160.000    -0.0487    0.6546    -2.8632
170.000    -0.0244    0.6528    -2.8632
180.000    0.0000    0.6528    -2.8632
EOT 7
