AeroDyn airfoil file.  Compatible with AeroDyn v13.0.
This file was generated automatically by HARP_Opt version 3.00.00_RC1.
This data represents a 72.9 percent thick airfoil, interpolated between the data in files NACA6_1000.dat and NACA6_0240.dat.
     7         Number of airfoil tables in this file
 2.000         Table ID parameter (Reynolds number in millions)
  0           Control setting
 8.914         Stall angle (deg)
  0           Zero lift angle of attack (deg)
  0           Cn slope for zero lift (dimensionless)
  0           Cn at stall value for positive angle of attack
  0           Cn at stall value for negative angle of attack
  0           Angle of attack for minimum CD (deg)
  0           Minimum CD value
-180.000    0.0000    0.1966    -2.2868
-170.000    0.1113    0.1966    -2.2868
-160.000    0.2225    0.2182    -2.2868
-150.000    0.3338    0.2796    -2.2868
-140.000    0.2745    0.3552    -2.2868
-130.000    0.2251    0.4361    -2.2868
-120.000    0.1733    0.5130    -2.2868
-110.000    0.1168    0.5768    -2.2868
-100.000    0.0574    0.6203    -2.2868
-90.000    0.0000    0.6387    -2.2868
-80.000    -0.0574    0.6203    -2.2868
-70.000    -0.1168    0.5768    -2.2868
-60.000    -0.1733    0.5130    -2.2868
-50.000    -0.2251    0.4361    -2.2868
-40.000    -0.2745    0.3552    -2.2868
-30.000    -0.3338    0.2796    -2.2868
-20.000    -0.2418    0.2396    -2.2868
-10.000    -0.2142    0.1996    -2.7739
-9.000    -0.2034    0.1984    -2.6917
-8.000    -0.1926    0.1974    -2.6123
-7.000    -0.1734    0.1970    -2.5209
-6.000    -0.1395    0.1966    -2.4321
-5.000    -0.1009    0.1963    -2.3617
-4.000    -0.0606    0.1961    -2.2956
-3.000    -0.0195    0.1957    -2.2531
-2.000    0.0239    0.1957    -2.2529
-1.000    0.0672    0.1956    -2.2828
0.000    0.1103    0.1957    -2.3145
0.736    0.1989    0.1957    -2.3820
1.467    0.2829    0.1960    -2.4520
2.188    0.3523    0.1966    -2.5279
2.895    0.3771    0.1980    -2.6046
3.581    0.4049    0.2002    -2.7111
4.243    0.4172    0.2040    -2.8318
4.876    0.4280    0.2087    -2.9807
5.475    0.4412    0.2137    -3.1423
6.038    0.4560    0.2187    -3.3169
6.559    0.4679    0.2239    -3.4894
7.035    0.4774    0.2291    -3.6505
7.463    0.4850    0.2341    -3.8000
7.840    0.4923    0.2383    -3.9416
8.164    0.4951    0.2425    -4.0524
8.431    0.4970    0.2460    -4.1429
8.642    0.4979    0.2488    -4.2122
8.793    0.4980    0.2509    -4.2603
8.884    0.4981    0.2521    -4.2893
8.914    0.4981    0.2525    -4.2990
9.038    0.4980    0.2529    -4.3056
9.407    0.4977    0.2539    -4.3255
10.019    0.4971    0.2557    -4.3584
10.870    0.4961    0.2582    -4.4019
11.954    0.4934    0.2613    -4.4443
13.264    0.4902    0.2652    -4.4956
14.790    0.4859    0.2699    -4.5463
16.523    0.4800    0.2754    -4.5825
18.451    0.4744    0.2818    -4.5505
20.560    0.4645    0.2906    -4.2781
22.836    0.4538    0.3001    -3.9842
25.263    0.4424    0.3103    -3.6707
27.825    0.4304    0.3211    -3.3398
30.505    0.4179    0.3323    -2.9938
33.283    0.4048    0.3439    -2.6350
36.142    0.3916    0.3560    -2.2868
39.061    0.3801    0.3691    -2.2868
42.020    0.3685    0.3823    -2.2868
45.000    0.3569    0.3957    -2.2868
50.000    0.3215    0.4361    -2.2868
60.000    0.2476    0.5130    -2.2868
70.000    0.1668    0.5768    -2.2868
80.000    0.0820    0.6203    -2.2868
90.000    0.0000    0.6387    -2.2868
100.000    -0.0574    0.6203    -2.2868
110.000    -0.1168    0.5768    -2.2868
120.000    -0.1733    0.5130    -2.2868
130.000    -0.2251    0.4361    -2.2868
140.000    -0.2745    0.3552    -2.2868
150.000    -0.3338    0.2796    -2.2868
160.000    -0.2225    0.2182    -2.2868
170.000    -0.1113    0.1966    -2.2868
180.000    0.0000    0.1966    -2.2868
EOT 1
 4.000         Table ID parameter (Reynolds number in millions)
  0           Control setting
 9.271         Stall angle (deg)
  0           Zero lift angle of attack (deg)
  0           Cn slope for zero lift (dimensionless)
  0           Cn at stall value for positive angle of attack
  0           Cn at stall value for negative angle of attack
  0           Angle of attack for minimum CD (deg)
  0           Minimum CD value
-180.000    0.0000    0.4347    -2.2868
-170.000    0.1166    0.4347    -2.2868
-160.000    0.2332    0.4520    -2.2868
-150.000    0.3498    0.5137    -2.2868
-140.000    0.2843    0.5898    -2.2868
-130.000    0.2308    0.6713    -2.2868
-120.000    0.1764    0.7488    -2.2868
-110.000    0.1181    0.8133    -2.2868
-100.000    0.0577    0.8576    -2.2868
-90.000    0.0000    0.8768    -2.2868
-80.000    -0.0577    0.8576    -2.2868
-70.000    -0.1181    0.8133    -2.2868
-60.000    -0.1764    0.7488    -2.2868
-50.000    -0.2308    0.6713    -2.2868
-40.000    -0.2843    0.5898    -2.2868
-30.000    -0.3498    0.5137    -2.2868
-20.000    -0.2556    0.4752    -2.2868
-10.000    -0.2306    0.4367    -2.8085
-9.000    -0.2138    0.4358    -2.7116
-8.000    -0.2069    0.4351    -2.6369
-7.000    -0.1765    0.4347    -2.5265
-6.000    -0.1394    0.4344    -2.4323
-5.000    -0.1002    0.4341    -2.3610
-4.000    -0.0584    0.4339    -2.2934
-3.000    -0.0162    0.4337    -2.2509
-1.000    0.0707    0.4334    -2.2849
0.000    0.1146    0.4334    -2.3173
0.766    0.2071    0.4335    -2.3882
1.526    0.2916    0.4339    -2.4614
2.276    0.3557    0.4347    -2.5356
3.010    0.3938    0.4360    -2.6383
3.724    0.4165    0.4385    -2.7459
4.413    0.4327    0.4423    -2.8980
5.071    0.4520    0.4465    -3.0822
5.694    0.4710    0.4511    -3.2789
6.279    0.4864    0.4562    -3.4819
6.821    0.4987    0.4615    -3.6734
7.316    0.5062    0.4671    -3.8495
7.761    0.5125    0.4724    -4.0136
8.154    0.5150    0.4775    -4.1499
8.490    0.5192    0.4815    -4.2855
8.769    0.5203    0.4852    -4.3858
8.987    0.5204    0.4882    -4.4602
9.145    0.5206    0.4902    -4.5129
9.239    0.5206    0.4915    -4.5446
9.271    0.5206    0.4919    -4.5553
9.393    0.5206    0.4922    -4.5621
9.758    0.5203    0.4932    -4.5827
10.364    0.5198    0.4948    -4.6168
11.207    0.5192    0.4970    -4.6638
12.280    0.5175    0.5000    -4.7153
13.577    0.5133    0.5038    -4.7584
15.089    0.5051    0.5087    -4.7799
16.805    0.4997    0.5138    -4.8207
18.713    0.4902    0.5215    -4.5633
20.801    0.4798    0.5300    -4.2818
23.055    0.4686    0.5391    -3.9780
25.458    0.4566    0.5488    -3.6539
27.995    0.4440    0.5591    -3.3119
30.648    0.4308    0.5698    -2.9542
33.399    0.4171    0.5809    -2.5833
36.229    0.4036    0.5925    -2.2868
39.119    0.3919    0.6051    -2.2868
42.050    0.3800    0.6178    -2.2868
45.000    0.3680    0.6305    -2.2868
50.000    0.3298    0.6713    -2.2868
60.000    0.2520    0.7488    -2.2868
70.000    0.1687    0.8133    -2.2868
80.000    0.0825    0.8576    -2.2868
90.000    0.0000    0.8768    -2.2868
100.000    -0.0577    0.8576    -2.2868
110.000    -0.1181    0.8133    -2.2868
120.000    -0.1764    0.7488    -2.2868
130.000    -0.2308    0.6713    -2.2868
140.000    -0.2843    0.5898    -2.2868
150.000    -0.3498    0.5137    -2.2868
160.000    -0.2332    0.4520    -2.2868
170.000    -0.1166    0.4347    -2.2868
180.000    0.0000    0.4347    -2.2868
EOT 2
 6.000         Table ID parameter (Reynolds number in millions)
  0           Control setting
 8.914         Stall angle (deg)
  0           Zero lift angle of attack (deg)
  0           Cn slope for zero lift (dimensionless)
  0           Cn at stall value for positive angle of attack
  0           Cn at stall value for negative angle of attack
  0           Angle of attack for minimum CD (deg)
  0           Minimum CD value
-180.000    0.0000    0.4540    -2.2868
-170.000    0.1210    0.4540    -2.2868
-160.000    0.2419    0.4681    -2.2868
-150.000    0.3629    0.5301    -2.2868
-140.000    0.2923    0.6065    -2.2868
-130.000    0.2355    0.6884    -2.2868
-120.000    0.1789    0.7664    -2.2868
-110.000    0.1192    0.8314    -2.2868
-100.000    0.0580    0.8763    -2.2868
-90.000    0.0000    0.8961    -2.2868
-80.000    -0.0580    0.8763    -2.2868
-70.000    -0.1192    0.8314    -2.2868
-60.000    -0.1789    0.7664    -2.2868
-50.000    -0.2355    0.6884    -2.2868
-40.000    -0.2923    0.6065    -2.2868
-30.000    -0.3629    0.5301    -2.2868
-20.000    -0.2655    0.4928    -2.2868
-10.000    -0.2401    0.4554    -2.8284
-9.000    -0.2250    0.4546    -2.7323
-8.000    -0.2107    0.4541    -2.6435
-7.000    -0.1771    0.4538    -2.5275
-6.000    -0.1400    0.4535    -2.4332
-5.000    -0.0994    0.4533    -2.3602
-4.000    -0.0574    0.4531    -2.2923
-3.000    -0.0149    0.4530    -2.2501
-2.000    0.0283    0.4527    -2.2554
-1.000    0.0722    0.4526    -2.2858
0.000    0.1160    0.4526    -2.3181
0.736    0.2052    0.4527    -2.3863
1.467    0.2881    0.4530    -2.4568
2.188    0.3526    0.4539    -2.5265
2.895    0.3960    0.4547    -2.6255
3.581    0.4203    0.4567    -2.7322
4.243    0.4380    0.4598    -2.8754
4.876    0.4579    0.4635    -3.0540
5.475    0.4769    0.4676    -3.2431
6.038    0.4928    0.4720    -3.4378
6.559    0.5044    0.4769    -3.6229
7.035    0.5177    0.4812    -3.8125
7.463    0.5249    0.4858    -3.9728
7.840    0.5280    0.4906    -4.1108
8.164    0.5295    0.4948    -4.2269
8.431    0.5311    0.4983    -4.3301
8.642    0.5321    0.5010    -4.4102
8.793    0.5325    0.5030    -4.4656
8.884    0.5328    0.5042    -4.4991
8.914    0.5329    0.5046    -4.5103
9.038    0.5328    0.5049    -4.5183
9.407    0.5326    0.5059    -4.5423
10.019    0.5323    0.5076    -4.5821
10.870    0.5317    0.5099    -4.6363
11.954    0.5302    0.5130    -4.6983
13.264    0.5282    0.5167    -4.7696
14.790    0.5256    0.5210    -4.8468
16.523    0.5219    0.5260    -4.9238
18.451    0.5155    0.5323    -4.9003
20.560    0.5037    0.5412    -4.5858
22.836    0.4910    0.5508    -4.2465
25.263    0.4774    0.5611    -3.8846
27.825    0.4631    0.5720    -3.5026
30.505    0.4481    0.5833    -3.1030
33.283    0.4326    0.5951    -2.6888
36.142    0.4168    0.6072    -2.2868
39.061    0.4036    0.6205    -2.2868
42.020    0.3904    0.6339    -2.2868
45.000    0.3770    0.6474    -2.2868
50.000    0.3365    0.6884    -2.2868
60.000    0.2556    0.7664    -2.2868
70.000    0.1703    0.8314    -2.2868
80.000    0.0829    0.8763    -2.2868
90.000    0.0000    0.8961    -2.2868
100.000    -0.0580    0.8763    -2.2868
110.000    -0.1192    0.8314    -2.2868
120.000    -0.1789    0.7664    -2.2868
130.000    -0.2355    0.6884    -2.2868
140.000    -0.2923    0.6065    -2.2868
150.000    -0.3629    0.5301    -2.2868
160.000    -0.2419    0.4681    -2.2868
170.000    -0.1210    0.4540    -2.2868
180.000    0.0000    0.4540    -2.2868
EOT 3
 8.000         Table ID parameter (Reynolds number in millions)
  0           Control setting
 8.914         Stall angle (deg)
  0           Zero lift angle of attack (deg)
  0           Cn slope for zero lift (dimensionless)
  0           Cn at stall value for positive angle of attack
  0           Cn at stall value for negative angle of attack
  0           Angle of attack for minimum CD (deg)
  0           Minimum CD value
-180.000    0.0000    0.4540    -2.2868
-170.000    0.1449    0.4540    -2.2868
-160.000    0.2899    0.4738    -2.2868
-150.000    0.3418    0.5353    -2.2868
-140.000    0.2794    0.6111    -2.2868
-130.000    0.2280    0.6923    -2.2868
-120.000    0.1749    0.7694    -2.2868
-110.000    0.1174    0.8335    -2.2868
-100.000    0.0576    0.8774    -2.2868
-90.000    0.0000    0.8961    -2.2868
-80.000    -0.0576    0.8774    -2.2868
-70.000    -0.1174    0.8335    -2.2868
-60.000    -0.1749    0.7694    -2.2868
-50.000    -0.2280    0.6923    -2.2868
-40.000    -0.2794    0.6111    -2.2868
-30.000    -0.3418    0.5353    -2.2868
-20.000    -0.2995    0.4885    -2.2868
-10.000    -0.2437    0.4552    -2.8389
-9.000    -0.2336    0.4543    -2.7484
-8.000    -0.2136    0.4540    -2.6487
-5.000    -0.0993    0.4532    -2.3600
-4.000    -0.0572    0.4530    -2.2920
-3.000    -0.0141    0.4529    -2.2461
-2.000    0.0291    0.4527    -2.2558
-1.000    0.0730    0.4525    -2.2862
0.000    0.1172    0.4525    -2.3189
0.736    0.2058    0.4526    -2.3868
1.467    0.2877    0.4531    -2.4536
2.188    0.3555    0.4538    -2.5270
2.895    0.4013    0.4545    -2.6317
3.581    0.4225    0.4567    -2.7422
4.243    0.4451    0.4594    -2.8903
4.876    0.4692    0.4627    -3.0842
5.475    0.4896    0.4664    -3.2798
6.038    0.5065    0.4705    -3.4828
6.559    0.5178    0.4752    -3.6702
7.035    0.5269    0.4800    -3.8490
7.463    0.5313    0.4851    -4.0050
7.840    0.5346    0.4897    -4.1417
8.164    0.5359    0.4939    -4.2634
8.431    0.5370    0.4974    -4.3641
8.642    0.5378    0.5001    -4.4432
8.793    0.5384    0.5021    -4.5001
8.884    0.5388    0.5033    -4.5344
8.914    0.5389    0.5037    -4.5458
9.038    0.5389    0.5040    -4.5541
9.407    0.5388    0.5050    -4.5791
10.019    0.5386    0.5067    -4.6205
10.870    0.5373    0.5091    -4.6567
11.954    0.5298    0.5131    -4.5765
13.264    0.5207    0.5180    -4.4795
14.790    0.5101    0.5237    -4.3666
16.523    0.4981    0.5301    -4.2383
18.451    0.4857    0.5375    -4.0811
20.560    0.4753    0.5464    -3.8652
22.836    0.4641    0.5559    -3.6322
25.263    0.4521    0.5661    -3.3838
27.825    0.4394    0.5769    -3.1215
30.505    0.4262    0.5881    -2.8472
33.283    0.4125    0.5998    -2.5628
36.142    0.3985    0.6119    -2.2868
39.061    0.3866    0.6250    -2.2868
42.020    0.3746    0.6383    -2.2868
45.000    0.3624    0.6517    -2.2868
50.000    0.3257    0.6923    -2.2868
60.000    0.2498    0.7694    -2.2868
70.000    0.1678    0.8335    -2.2868
80.000    0.0823    0.8774    -2.2868
90.000    0.0000    0.8961    -2.2868
100.000    -0.0576    0.8774    -2.2868
110.000    -0.1174    0.8335    -2.2868
120.000    -0.1749    0.7694    -2.2868
130.000    -0.2280    0.6923    -2.2868
140.000    -0.2794    0.6111    -2.2868
150.000    -0.3418    0.5353    -2.2868
160.000    -0.2899    0.4738    -2.2868
170.000    -0.1449    0.4540    -2.2868
180.000    0.0000    0.4540    -2.2868
EOT 4
10.000         Table ID parameter (Reynolds number in millions)
  0           Control setting
 9.271         Stall angle (deg)
  0           Zero lift angle of attack (deg)
  0           Cn slope for zero lift (dimensionless)
  0           Cn at stall value for positive angle of attack
  0           Cn at stall value for negative angle of attack
  0           Angle of attack for minimum CD (deg)
  0           Minimum CD value
-180.000    0.0000    0.4540    -2.2868
-170.000    0.1251    0.4540    -2.2868
-160.000    0.2502    0.4647    -2.2868
-150.000    0.3753    0.5270    -2.2868
-140.000    0.2998    0.6037    -2.2868
-130.000    0.2400    0.6861    -2.2868
-120.000    0.1813    0.7645    -2.2868
-110.000    0.1202    0.8302    -2.2868
-100.000    0.0583    0.8757    -2.2868
-90.000    0.0000    0.8961    -2.2868
-80.000    -0.0583    0.8757    -2.2868
-70.000    -0.1202    0.8302    -2.2868
-60.000    -0.1813    0.7645    -2.2868
-50.000    -0.2400    0.6861    -2.2868
-40.000    -0.2998    0.6037    -2.2868
-30.000    -0.3753    0.5270    -2.2868
-20.000    -0.2726    0.4911    -2.2868
-10.000    -0.2429    0.4552    -2.8304
-9.000    -0.2443    0.4542    -2.7698
-8.000    -0.2161    0.4539    -2.6533
-6.000    -0.1405    0.4533    -2.4347
-4.000    -0.0569    0.4530    -2.2917
-3.000    -0.0138    0.4529    -2.2466
-2.000    0.0296    0.4527    -2.2561
-1.000    0.0737    0.4525    -2.2866
0.000    0.1177    0.4525    -2.3191
0.766    0.2091    0.4526    -2.3899
1.526    0.2929    0.4532    -2.4575
2.276    0.3658    0.4538    -2.5423
3.010    0.4089    0.4547    -2.6539
3.724    0.4309    0.4569    -2.7671
4.413    0.4583    0.4597    -2.9545
5.071    0.4832    0.4632    -3.1636
5.694    0.5036    0.4673    -3.3780
6.279    0.5182    0.4720    -3.5901
6.821    0.5293    0.4771    -3.7916
7.316    0.5352    0.4826    -3.9711
7.761    0.5401    0.4878    -4.1460
8.154    0.5452    0.4924    -4.3109
8.490    0.5495    0.4963    -4.4525
8.769    0.5512    0.4998    -4.5635
8.987    0.5517    0.5027    -4.6474
9.145    0.5518    0.5048    -4.7053
9.239    0.5518    0.5060    -4.7402
9.271    0.5518    0.5064    -4.7518
9.393    0.5517    0.5068    -4.7595
9.758    0.5515    0.5077    -4.7826
10.364    0.5510    0.5092    -4.8209
11.207    0.5503    0.5114    -4.8736
12.280    0.5483    0.5143    -4.9312
13.577    0.5455    0.5179    -4.9958
15.089    0.5414    0.5221    -5.0615
16.805    0.5361    0.5270    -5.1230
18.713    0.5251    0.5348    -4.8350
20.801    0.5132    0.5433    -4.5198
23.055    0.5002    0.5525    -4.1798
25.458    0.4865    0.5623    -3.8171
27.995    0.4719    0.5727    -3.4342
30.648    0.4567    0.5835    -3.0338
33.399    0.4409    0.5947    -2.6187
36.229    0.4255    0.6065    -2.2868
39.119    0.4123    0.6191    -2.2868
42.050    0.3990    0.6319    -2.2868
45.000    0.3856    0.6449    -2.2868
50.000    0.3429    0.6861    -2.2868
60.000    0.2591    0.7645    -2.2868
70.000    0.1717    0.8302    -2.2868
80.000    0.0832    0.8757    -2.2868
90.000    0.0000    0.8961    -2.2868
100.000    -0.0583    0.8757    -2.2868
110.000    -0.1202    0.8302    -2.2868
120.000    -0.1813    0.7645    -2.2868
130.000    -0.2400    0.6861    -2.2868
140.000    -0.2998    0.6037    -2.2868
150.000    -0.3753    0.5270    -2.2868
160.000    -0.2502    0.4647    -2.2868
170.000    -0.1251    0.4540    -2.2868
180.000    0.0000    0.4540    -2.2868
EOT 5
12.000         Table ID parameter (Reynolds number in millions)
  0           Control setting
 8.914         Stall angle (deg)
  0           Zero lift angle of attack (deg)
  0           Cn slope for zero lift (dimensionless)
  0           Cn at stall value for positive angle of attack
  0           Cn at stall value for negative angle of attack
  0           Angle of attack for minimum CD (deg)
  0           Minimum CD value
-180.000    0.0000    0.4540    -2.2868
-170.000    0.1318    0.4540    -2.2868
-160.000    0.2635    0.4658    -2.2868
-150.000    0.3725    0.5280    -2.2868
-140.000    0.2981    0.6047    -2.2868
-130.000    0.2390    0.6868    -2.2868
-120.000    0.1808    0.7651    -2.2868
-110.000    0.1200    0.8306    -2.2868
-100.000    0.0582    0.8759    -2.2868
-90.000    0.0000    0.8961    -2.2868
-80.000    -0.0582    0.8759    -2.2868
-70.000    -0.1200    0.8306    -2.2868
-60.000    -0.1808    0.7651    -2.2868
-50.000    -0.2390    0.6868    -2.2868
-40.000    -0.2981    0.6047    -2.2868
-30.000    -0.3725    0.5280    -2.2868
-20.000    -0.2832    0.4897    -2.2868
-10.000    -0.2476    0.4550    -2.8409
-7.000    -0.1801    0.4535    -2.5325
-6.000    -0.1402    0.4533    -2.4307
-5.000    -0.0992    0.4531    -2.3600
-4.000    -0.0569    0.4529    -2.2916
-3.000    -0.0135    0.4528    -2.2476
-2.000    0.0302    0.4527    -2.2564
-1.000    0.0741    0.4525    -2.2869
0.000    0.1180    0.4525    -2.3192
0.736    0.2062    0.4526    -2.3859
1.467    0.2873    0.4531    -2.4531
2.188    0.3600    0.4536    -2.5322
2.895    0.4063    0.4544    -2.6373
3.581    0.4295    0.4562    -2.7414
4.243    0.4588    0.4585    -2.9192
4.876    0.4821    0.4617    -3.1136
5.475    0.5013    0.4654    -3.3153
6.038    0.5174    0.4695    -3.5185
6.559    0.5291    0.4740    -3.7106
7.035    0.5358    0.4790    -3.8840
7.463    0.5435    0.4834    -4.0586
7.840    0.5511    0.4873    -4.2185
8.164    0.5538    0.4913    -4.3511
8.431    0.5554    0.4947    -4.4605
8.642    0.5563    0.4974    -4.5449
8.793    0.5567    0.4994    -4.6040
8.884    0.5570    0.5006    -4.6396
8.914    0.5570    0.5010    -4.6515
9.038    0.5570    0.5013    -4.6604
9.407    0.5570    0.5023    -4.6870
10.019    0.5568    0.5039    -4.7311
10.870    0.5565    0.5062    -4.7911
11.954    0.5549    0.5091    -4.8591
13.264    0.5525    0.5128    -4.9360
14.790    0.5491    0.5172    -5.0179
16.523    0.5428    0.5225    -5.0467
18.451    0.5292    0.5302    -4.8376
20.560    0.5167    0.5391    -4.5307
22.836    0.5033    0.5488    -4.1995
25.263    0.4890    0.5591    -3.8463
27.825    0.4739    0.5700    -3.4734
30.505    0.4581    0.5814    -3.0835
33.283    0.4418    0.5932    -2.6791
36.142    0.4251    0.6054    -2.2868
39.061    0.4115    0.6187    -2.2868
42.020    0.3976    0.6322    -2.2868
45.000    0.3837    0.6457    -2.2868
50.000    0.3414    0.6868    -2.2868
60.000    0.2583    0.7651    -2.2868
70.000    0.1714    0.8306    -2.2868
80.000    0.0832    0.8759    -2.2868
90.000    0.0000    0.8961    -2.2868
100.000    -0.0582    0.8759    -2.2868
110.000    -0.1200    0.8306    -2.2868
120.000    -0.1808    0.7651    -2.2868
130.000    -0.2390    0.6868    -2.2868
140.000    -0.2981    0.6047    -2.2868
150.000    -0.3725    0.5280    -2.2868
160.000    -0.2635    0.4658    -2.2868
170.000    -0.1318    0.4540    -2.2868
180.000    0.0000    0.4540    -2.2868
EOT 6
14.000         Table ID parameter (Reynolds number in millions)
  0           Control setting
 8.914         Stall angle (deg)
  0           Zero lift angle of attack (deg)
  0           Cn slope for zero lift (dimensionless)
  0           Cn at stall value for positive angle of attack
  0           Cn at stall value for negative angle of attack
  0           Angle of attack for minimum CD (deg)
  0           Minimum CD value
-180.000    0.0000    0.4540    -2.2868
-170.000    0.1270    0.4540    -2.2868
-160.000    0.2539    0.4633    -2.2868
-150.000    0.3809    0.5256    -2.2868
-140.000    0.3032    0.6025    -2.2868
-130.000    0.2420    0.6851    -2.2868
-120.000    0.1824    0.7638    -2.2868
-110.000    0.1207    0.8297    -2.2868
-100.000    0.0584    0.8754    -2.2868
-90.000    0.0000    0.8961    -2.2868
-80.000    -0.0584    0.8754    -2.2868
-70.000    -0.1207    0.8297    -2.2868
-60.000    -0.1824    0.7638    -2.2868
-50.000    -0.2420    0.6851    -2.2868
-40.000    -0.3032    0.6025    -2.2868
-30.000    -0.3809    0.5256    -2.2868
-20.000    -0.2788    0.4902    -2.2868
-10.000    -0.2524    0.4548    -2.8510
-9.000    -0.2454    0.4541    -2.7672
-8.000    -0.2185    0.4537    -2.6578
-6.000    -0.1401    0.4533    -2.4298
-5.000    -0.0991    0.4530    -2.3599
-4.000    -0.0568    0.4529    -2.2915
-3.000    -0.0132    0.4528    -2.2477
-2.000    0.0306    0.4526    -2.2566
-1.000    0.0743    0.4525    -2.2870
0.000    0.1184    0.4524    -2.3195
0.736    0.2061    0.4526    -2.3856
1.467    0.2863    0.4531    -2.4533
2.188    0.3613    0.4536    -2.5336
2.895    0.4080    0.4543    -2.6405
3.581    0.4355    0.4562    -2.7688
4.243    0.4630    0.4583    -2.9279
4.876    0.4884    0.4612    -3.1305
5.475    0.5065    0.4650    -3.3314
6.038    0.5210    0.4692    -3.5314
6.559    0.5333    0.4736    -3.7273
7.035    0.5428    0.4782    -3.9172
7.463    0.5514    0.4824    -4.0880
7.840    0.5554    0.4867    -4.2379
8.164    0.5583    0.4907    -4.3744
8.431    0.5598    0.4941    -4.4839
8.642    0.5605    0.4968    -4.5679
8.793    0.5607    0.4988    -4.6266
8.884    0.5609    0.5000    -4.6619
8.914    0.5609    0.5004    -4.6737
9.038    0.5608    0.5007    -4.6822
9.407    0.5605    0.5017    -4.7076
10.019    0.5600    0.5034    -4.7498
10.870    0.5591    0.5057    -4.8075
11.954    0.5576    0.5087    -4.8763
13.264    0.5554    0.5124    -4.9553
14.790    0.5524    0.5166    -5.0410
16.523    0.5482    0.5216    -5.1274
18.451    0.5410    0.5278    -5.1061
20.560    0.5280    0.5368    -4.7669
22.836    0.5140    0.5465    -4.4008
25.263    0.4991    0.5569    -4.0104
27.825    0.4833    0.5678    -3.5983
30.505    0.4668    0.5792    -3.1673
33.283    0.4498    0.5911    -2.7204
36.142    0.4324    0.6033    -2.2868
39.061    0.4182    0.6166    -2.2868
42.020    0.4039    0.6302    -2.2868
45.000    0.3895    0.6438    -2.2868
50.000    0.3457    0.6851    -2.2868
60.000    0.2606    0.7638    -2.2868
70.000    0.1724    0.8297    -2.2868
80.000    0.0834    0.8754    -2.2868
90.000    0.0000    0.8961    -2.2868
100.000    -0.0584    0.8754    -2.2868
110.000    -0.1207    0.8297    -2.2868
120.000    -0.1824    0.7638    -2.2868
130.000    -0.2420    0.6851    -2.2868
140.000    -0.3032    0.6025    -2.2868
150.000    -0.3809    0.5256    -2.2868
160.000    -0.2539    0.4633    -2.2868
170.000    -0.1270    0.4540    -2.2868
180.000    0.0000    0.4540    -2.2868
EOT 7
