AeroDyn airfoil file.  Compatible with AeroDyn v13.0.
This file was generated automatically by HARP_Opt version 3.00.00_RC1.
This data represents a 68.6 percent thick airfoil, interpolated between the data in files NACA6_1000.dat and NACA6_0240.dat.
     7         Number of airfoil tables in this file
 2.000         Table ID parameter (Reynolds number in millions)
  0           Control setting
10.329         Stall angle (deg)
  0           Zero lift angle of attack (deg)
  0           Cn slope for zero lift (dimensionless)
  0           Cn at stall value for positive angle of attack
  0           Cn at stall value for negative angle of attack
  0           Angle of attack for minimum CD (deg)
  0           Minimum CD value
-180.000    0.0000    0.1802    -2.1737
-170.000    0.1289    0.1802    -2.1737
-160.000    0.2578    0.2052    -2.1737
-150.000    0.3867    0.2764    -2.1737
-140.000    0.3181    0.3640    -2.1737
-130.000    0.2608    0.4577    -2.1737
-120.000    0.2008    0.5468    -2.1737
-110.000    0.1353    0.6207    -2.1737
-100.000    0.0665    0.6711    -2.1737
-90.000    0.0000    0.6925    -2.1737
-80.000    -0.0665    0.6711    -2.1737
-70.000    -0.1353    0.6207    -2.1737
-60.000    -0.2008    0.5468    -2.1737
-50.000    -0.2608    0.4577    -2.1737
-40.000    -0.3181    0.3640    -2.1737
-30.000    -0.3867    0.2764    -2.1737
-20.000    -0.2802    0.2300    -2.1737
-10.000    -0.2481    0.1836    -2.7380
-9.000    -0.2356    0.1823    -2.6428
-8.000    -0.2231    0.1812    -2.5508
-7.000    -0.2009    0.1806    -2.4449
-6.000    -0.1616    0.1802    -2.3420
-5.000    -0.1169    0.1799    -2.2604
-4.000    -0.0702    0.1796    -2.1838
-3.000    -0.0226    0.1792    -2.1346
-2.000    0.0277    0.1791    -2.1343
-1.000    0.0778    0.1791    -2.1691
0.000    0.1277    0.1791    -2.2058
0.853    0.2305    0.1792    -2.2840
1.700    0.3278    0.1795    -2.3651
2.536    0.4082    0.1802    -2.4530
3.354    0.4369    0.1819    -2.5419
4.149    0.4692    0.1844    -2.6653
4.916    0.4834    0.1888    -2.8051
5.649    0.4959    0.1943    -2.9776
6.344    0.5112    0.2000    -3.1649
6.996    0.5284    0.2058    -3.3672
7.599    0.5421    0.2118    -3.5671
8.151    0.5531    0.2179    -3.7537
8.647    0.5619    0.2236    -3.9270
9.084    0.5704    0.2285    -4.0910
9.459    0.5737    0.2334    -4.2194
9.769    0.5758    0.2374    -4.3243
10.013    0.5769    0.2407    -4.4046
10.188    0.5771    0.2431    -4.4603
10.294    0.5771    0.2445    -4.4939
10.329    0.5772    0.2450    -4.5051
10.447    0.5770    0.2454    -4.5128
10.802    0.5766    0.2466    -4.5358
11.390    0.5760    0.2487    -4.5739
12.208    0.5748    0.2515    -4.6244
13.249    0.5717    0.2552    -4.6735
14.508    0.5679    0.2597    -4.7329
15.975    0.5629    0.2651    -4.7917
17.640    0.5562    0.2715    -4.8336
19.492    0.5496    0.2789    -4.7965
21.518    0.5382    0.2891    -4.4809
23.705    0.5258    0.3002    -4.1404
26.037    0.5126    0.3120    -3.7771
28.498    0.4987    0.3244    -3.3938
31.073    0.4842    0.3374    -2.9928
33.742    0.4691    0.3509    -2.5770
36.489    0.4537    0.3648    -2.1737
39.293    0.4404    0.3800    -2.1737
42.137    0.4270    0.3954    -2.1737
45.000    0.4135    0.4109    -2.1737
50.000    0.3725    0.4577    -2.1737
60.000    0.2869    0.5468    -2.1737
70.000    0.1933    0.6207    -2.1737
80.000    0.0950    0.6711    -2.1737
90.000    0.0000    0.6925    -2.1737
100.000    -0.0665    0.6711    -2.1737
110.000    -0.1353    0.6207    -2.1737
120.000    -0.2008    0.5468    -2.1737
130.000    -0.2608    0.4577    -2.1737
140.000    -0.3181    0.3640    -2.1737
150.000    -0.3867    0.2764    -2.1737
160.000    -0.2578    0.2052    -2.1737
170.000    -0.1289    0.1802    -2.1737
180.000    0.0000    0.1802    -2.1737
EOT 1
 4.000         Table ID parameter (Reynolds number in millions)
  0           Control setting
10.742         Stall angle (deg)
  0           Zero lift angle of attack (deg)
  0           Cn slope for zero lift (dimensionless)
  0           Cn at stall value for positive angle of attack
  0           Cn at stall value for negative angle of attack
  0           Angle of attack for minimum CD (deg)
  0           Minimum CD value
-180.000    0.0000    0.3973    -2.1737
-170.000    0.1351    0.3973    -2.1737
-160.000    0.2702    0.4174    -2.1737
-150.000    0.4053    0.4890    -2.1737
-140.000    0.3295    0.5771    -2.1737
-130.000    0.2675    0.6715    -2.1737
-120.000    0.2044    0.7613    -2.1737
-110.000    0.1368    0.8360    -2.1737
-100.000    0.0669    0.8874    -2.1737
-90.000    0.0000    0.9096    -2.1737
-80.000    -0.0669    0.8874    -2.1737
-70.000    -0.1368    0.8360    -2.1737
-60.000    -0.2044    0.7613    -2.1737
-50.000    -0.2675    0.6715    -2.1737
-40.000    -0.3295    0.5771    -2.1737
-30.000    -0.4053    0.4890    -2.1737
-20.000    -0.2962    0.4443    -2.1737
-10.000    -0.2672    0.3996    -2.7781
-9.000    -0.2477    0.3986    -2.6658
-8.000    -0.2397    0.3978    -2.5792
-7.000    -0.2045    0.3973    -2.4513
-6.000    -0.1615    0.3970    -2.3422
-5.000    -0.1161    0.3967    -2.2596
-4.000    -0.0677    0.3965    -2.1813
-3.000    -0.0188    0.3962    -2.1320
-1.000    0.0819    0.3959    -2.1714
0.000    0.1327    0.3958    -2.2089
0.887    0.2400    0.3959    -2.2911
1.768    0.3378    0.3964    -2.3759
2.637    0.4122    0.3974    -2.4619
3.488    0.4563    0.3988    -2.5809
4.315    0.4826    0.4017    -2.7056
5.113    0.5014    0.4061    -2.8818
5.875    0.5237    0.4110    -3.0952
6.598    0.5457    0.4164    -3.3232
7.275    0.5636    0.4223    -3.5583
7.903    0.5778    0.4284    -3.7802
8.477    0.5865    0.4349    -3.9842
8.993    0.5938    0.4411    -4.1745
9.447    0.5967    0.4470    -4.3324
9.837    0.6016    0.4516    -4.4895
10.160    0.6028    0.4559    -4.6057
10.413    0.6030    0.4593    -4.6918
10.596    0.6031    0.4617    -4.7529
10.705    0.6032    0.4632    -4.7897
10.742    0.6033    0.4637    -4.8020
10.859    0.6031    0.4640    -4.8100
11.209    0.6028    0.4652    -4.8338
11.790    0.6023    0.4670    -4.8733
12.598    0.6015    0.4696    -4.9278
13.628    0.5997    0.4730    -4.9875
14.871    0.5947    0.4774    -5.0374
16.320    0.5853    0.4832    -5.0623
17.966    0.5790    0.4890    -5.1095
19.796    0.5680    0.4980    -4.8114
21.798    0.5560    0.5077    -4.4852
23.958    0.5430    0.5183    -4.1332
26.263    0.5291    0.5296    -3.7577
28.695    0.5145    0.5415    -3.3614
31.239    0.4992    0.5539    -2.9470
33.876    0.4833    0.5668    -2.5172
36.590    0.4677    0.5803    -2.1737
39.361    0.4541    0.5948    -2.1737
42.171    0.4403    0.6095    -2.1737
45.000    0.4264    0.6243    -2.1737
50.000    0.3821    0.6715    -2.1737
60.000    0.2920    0.7613    -2.1737
70.000    0.1955    0.8360    -2.1737
80.000    0.0956    0.8874    -2.1737
90.000    0.0000    0.9096    -2.1737
100.000    -0.0669    0.8874    -2.1737
110.000    -0.1368    0.8360    -2.1737
120.000    -0.2044    0.7613    -2.1737
130.000    -0.2675    0.6715    -2.1737
140.000    -0.3295    0.5771    -2.1737
150.000    -0.4053    0.4890    -2.1737
160.000    -0.2702    0.4174    -2.1737
170.000    -0.1351    0.3973    -2.1737
180.000    0.0000    0.3973    -2.1737
EOT 2
 6.000         Table ID parameter (Reynolds number in millions)
  0           Control setting
10.329         Stall angle (deg)
  0           Zero lift angle of attack (deg)
  0           Cn slope for zero lift (dimensionless)
  0           Cn at stall value for positive angle of attack
  0           Cn at stall value for negative angle of attack
  0           Angle of attack for minimum CD (deg)
  0           Minimum CD value
-180.000    0.0000    0.4149    -2.1737
-170.000    0.1401    0.4149    -2.1737
-160.000    0.2803    0.4313    -2.1737
-150.000    0.4204    0.5031    -2.1737
-140.000    0.3386    0.5916    -2.1737
-130.000    0.2729    0.6865    -2.1737
-120.000    0.2073    0.7769    -2.1737
-110.000    0.1381    0.8523    -2.1737
-100.000    0.0672    0.9043    -2.1737
-90.000    0.0000    0.9272    -2.1737
-80.000    -0.0672    0.9043    -2.1737
-70.000    -0.1381    0.8523    -2.1737
-60.000    -0.2073    0.7769    -2.1737
-50.000    -0.2729    0.6865    -2.1737
-40.000    -0.3386    0.5916    -2.1737
-30.000    -0.4204    0.5031    -2.1737
-20.000    -0.3076    0.4599    -2.1737
-10.000    -0.2782    0.4166    -2.8012
-9.000    -0.2607    0.4157    -2.6898
-8.000    -0.2441    0.4151    -2.5870
-7.000    -0.2052    0.4148    -2.4525
-6.000    -0.1622    0.4144    -2.3432
-5.000    -0.1152    0.4141    -2.2587
-4.000    -0.0666    0.4140    -2.1800
-3.000    -0.0173    0.4138    -2.1311
-2.000    0.0328    0.4134    -2.1372
-1.000    0.0837    0.4133    -2.1725
0.000    0.1344    0.4133    -2.2099
0.853    0.2378    0.4134    -2.2889
1.700    0.3338    0.4139    -2.3706
2.536    0.4086    0.4148    -2.4514
3.354    0.4588    0.4157    -2.5660
4.149    0.4870    0.4181    -2.6897
4.916    0.5075    0.4217    -2.8556
5.649    0.5306    0.4260    -3.0625
6.344    0.5526    0.4307    -3.2816
6.996    0.5710    0.4358    -3.5072
7.599    0.5844    0.4415    -3.7218
8.151    0.5998    0.4464    -3.9414
8.647    0.6082    0.4518    -4.1272
9.084    0.6117    0.4573    -4.2871
9.459    0.6135    0.4622    -4.4216
9.769    0.6154    0.4662    -4.5412
10.013    0.6166    0.4694    -4.6339
10.188    0.6170    0.4717    -4.6982
10.294    0.6173    0.4731    -4.7369
10.329    0.6174    0.4736    -4.7499
10.447    0.6173    0.4740    -4.7592
10.802    0.6171    0.4751    -4.7870
11.390    0.6168    0.4771    -4.8332
12.208    0.6161    0.4797    -4.8960
13.249    0.6144    0.4833    -4.9678
14.508    0.6120    0.4876    -5.0504
15.975    0.6090    0.4926    -5.1399
17.640    0.6047    0.4983    -5.2291
19.492    0.5973    0.5057    -5.2018
21.518    0.5836    0.5160    -4.8375
23.705    0.5689    0.5272    -4.4443
26.037    0.5531    0.5391    -4.0249
28.498    0.5365    0.5516    -3.5823
31.073    0.5192    0.5648    -3.1194
33.742    0.5012    0.5784    -2.6394
36.489    0.4829    0.5925    -2.1737
39.293    0.4677    0.6078    -2.1737
42.137    0.4523    0.6234    -2.1737
45.000    0.4368    0.6391    -2.1737
50.000    0.3899    0.6865    -2.1737
60.000    0.2962    0.7769    -2.1737
70.000    0.1973    0.8523    -2.1737
80.000    0.0960    0.9043    -2.1737
90.000    0.0000    0.9272    -2.1737
100.000    -0.0672    0.9043    -2.1737
110.000    -0.1381    0.8523    -2.1737
120.000    -0.2073    0.7769    -2.1737
130.000    -0.2729    0.6865    -2.1737
140.000    -0.3386    0.5916    -2.1737
150.000    -0.4204    0.5031    -2.1737
160.000    -0.2803    0.4313    -2.1737
170.000    -0.1401    0.4149    -2.1737
180.000    0.0000    0.4149    -2.1737
EOT 3
 8.000         Table ID parameter (Reynolds number in millions)
  0           Control setting
10.329         Stall angle (deg)
  0           Zero lift angle of attack (deg)
  0           Cn slope for zero lift (dimensionless)
  0           Cn at stall value for positive angle of attack
  0           Cn at stall value for negative angle of attack
  0           Angle of attack for minimum CD (deg)
  0           Minimum CD value
-180.000    0.0000    0.4149    -2.1737
-170.000    0.1679    0.4149    -2.1737
-160.000    0.3359    0.4379    -2.1737
-150.000    0.3960    0.5092    -2.1737
-140.000    0.3238    0.5970    -2.1737
-130.000    0.2641    0.6911    -2.1737
-120.000    0.2026    0.7804    -2.1737
-110.000    0.1361    0.8547    -2.1737
-100.000    0.0667    0.9055    -2.1737
-90.000    0.0000    0.9272    -2.1737
-80.000    -0.0667    0.9055    -2.1737
-70.000    -0.1361    0.8547    -2.1737
-60.000    -0.2026    0.7804    -2.1737
-50.000    -0.2641    0.6911    -2.1737
-40.000    -0.3238    0.5970    -2.1737
-30.000    -0.3960    0.5092    -2.1737
-20.000    -0.3471    0.4550    -2.1737
-10.000    -0.2824    0.4164    -2.8133
-9.000    -0.2707    0.4153    -2.7085
-8.000    -0.2475    0.4149    -2.5930
-5.000    -0.1151    0.4141    -2.2584
-4.000    -0.0663    0.4138    -2.1797
-3.000    -0.0164    0.4137    -2.1265
-2.000    0.0337    0.4134    -2.1377
-1.000    0.0845    0.4133    -2.1729
0.000    0.1358    0.4132    -2.2108
0.853    0.2385    0.4134    -2.2895
1.700    0.3333    0.4139    -2.3669
2.536    0.4119    0.4147    -2.4520
3.354    0.4650    0.4155    -2.5733
4.149    0.4895    0.4181    -2.7013
4.916    0.5158    0.4212    -2.8729
5.649    0.5437    0.4250    -3.0976
6.344    0.5673    0.4293    -3.3242
6.996    0.5869    0.4341    -3.5594
7.599    0.6000    0.4396    -3.7765
8.151    0.6105    0.4451    -3.9838
8.647    0.6156    0.4510    -4.1645
9.084    0.6194    0.4563    -4.3229
9.459    0.6210    0.4612    -4.4638
9.769    0.6222    0.4652    -4.5806
10.013    0.6232    0.4684    -4.6722
10.188    0.6238    0.4707    -4.7381
10.294    0.6243    0.4721    -4.7778
10.329    0.6244    0.4726    -4.7911
10.447    0.6244    0.4729    -4.8007
10.802    0.6242    0.4741    -4.8297
11.390    0.6240    0.4760    -4.8776
12.208    0.6226    0.4788    -4.9196
13.249    0.6139    0.4835    -4.8266
14.508    0.6033    0.4891    -4.7143
15.975    0.5910    0.4957    -4.5834
17.640    0.5771    0.5031    -4.4348
19.492    0.5628    0.5117    -4.2526
21.518    0.5507    0.5220    -4.0025
23.705    0.5377    0.5331    -3.7325
26.037    0.5238    0.5449    -3.4446
28.498    0.5092    0.5573    -3.1408
31.073    0.4938    0.5704    -2.8230
33.742    0.4779    0.5839    -2.4934
36.489    0.4618    0.5979    -2.1737
39.293    0.4480    0.6131    -2.1737
42.137    0.4340    0.6285    -2.1737
45.000    0.4199    0.6441    -2.1737
50.000    0.3773    0.6911    -2.1737
60.000    0.2895    0.7804    -2.1737
70.000    0.1944    0.8547    -2.1737
80.000    0.0953    0.9055    -2.1737
90.000    0.0000    0.9272    -2.1737
100.000    -0.0667    0.9055    -2.1737
110.000    -0.1361    0.8547    -2.1737
120.000    -0.2026    0.7804    -2.1737
130.000    -0.2641    0.6911    -2.1737
140.000    -0.3238    0.5970    -2.1737
150.000    -0.3960    0.5092    -2.1737
160.000    -0.3359    0.4379    -2.1737
170.000    -0.1679    0.4149    -2.1737
180.000    0.0000    0.4149    -2.1737
EOT 4
10.000         Table ID parameter (Reynolds number in millions)
  0           Control setting
10.742         Stall angle (deg)
  0           Zero lift angle of attack (deg)
  0           Cn slope for zero lift (dimensionless)
  0           Cn at stall value for positive angle of attack
  0           Cn at stall value for negative angle of attack
  0           Angle of attack for minimum CD (deg)
  0           Minimum CD value
-180.000    0.0000    0.4149    -2.1737
-170.000    0.1449    0.4149    -2.1737
-160.000    0.2899    0.4273    -2.1737
-150.000    0.4348    0.4995    -2.1737
-140.000    0.3474    0.5884    -2.1737
-130.000    0.2781    0.6838    -2.1737
-120.000    0.2101    0.7748    -2.1737
-110.000    0.1393    0.8508    -2.1737
-100.000    0.0675    0.9036    -2.1737
-90.000    0.0000    0.9272    -2.1737
-80.000    -0.0675    0.9036    -2.1737
-70.000    -0.1393    0.8508    -2.1737
-60.000    -0.2101    0.7748    -2.1737
-50.000    -0.2781    0.6838    -2.1737
-40.000    -0.3474    0.5884    -2.1737
-30.000    -0.4348    0.4995    -2.1737
-20.000    -0.3159    0.4579    -2.1737
-10.000    -0.2814    0.4164    -2.8035
-9.000    -0.2831    0.4152    -2.7333
-8.000    -0.2504    0.4148    -2.5982
-6.000    -0.1628    0.4142    -2.3450
-4.000    -0.0659    0.4138    -2.1793
-3.000    -0.0160    0.4136    -2.1270
-2.000    0.0343    0.4134    -2.1381
-1.000    0.0854    0.4132    -2.1734
0.000    0.1364    0.4132    -2.2111
0.887    0.2423    0.4134    -2.2931
1.768    0.3394    0.4140    -2.3714
2.637    0.4238    0.4147    -2.4697
3.488    0.4737    0.4157    -2.5990
4.315    0.4993    0.4184    -2.7301
5.113    0.5310    0.4216    -2.9472
5.875    0.5599    0.4256    -3.1896
6.598    0.5835    0.4303    -3.4380
7.275    0.6005    0.4358    -3.6837
7.903    0.6133    0.4417    -3.9172
8.477    0.6202    0.4481    -4.1252
8.993    0.6258    0.4541    -4.3278
9.447    0.6317    0.4594    -4.5190
9.837    0.6367    0.4640    -4.6829
10.160    0.6386    0.4681    -4.8116
10.413    0.6393    0.4714    -4.9088
10.596    0.6393    0.4738    -4.9759
10.705    0.6394    0.4752    -5.0163
10.742    0.6394    0.4757    -5.0298
10.859    0.6393    0.4761    -5.0387
11.209    0.6390    0.4772    -5.0654
11.790    0.6384    0.4790    -5.1098
12.598    0.6376    0.4815    -5.1709
13.628    0.6353    0.4848    -5.2377
14.871    0.6320    0.4890    -5.3124
16.320    0.6273    0.4939    -5.3886
17.966    0.6211    0.4996    -5.4598
19.796    0.6085    0.5086    -5.1261
21.798    0.5946    0.5184    -4.7610
23.958    0.5796    0.5291    -4.3670
26.263    0.5637    0.5405    -3.9467
28.695    0.5468    0.5525    -3.5031
31.239    0.5292    0.5650    -3.0392
33.876    0.5109    0.5780    -2.5582
36.590    0.4930    0.5916    -2.1737
39.361    0.4777    0.6063    -2.1737
42.171    0.4623    0.6212    -2.1737
45.000    0.4468    0.6361    -2.1737
50.000    0.3973    0.6838    -2.1737
60.000    0.3002    0.7748    -2.1737
70.000    0.1990    0.8508    -2.1737
80.000    0.0964    0.9036    -2.1737
90.000    0.0000    0.9272    -2.1737
100.000    -0.0675    0.9036    -2.1737
110.000    -0.1393    0.8508    -2.1737
120.000    -0.2101    0.7748    -2.1737
130.000    -0.2781    0.6838    -2.1737
140.000    -0.3474    0.5884    -2.1737
150.000    -0.4348    0.4995    -2.1737
160.000    -0.2899    0.4273    -2.1737
170.000    -0.1449    0.4149    -2.1737
180.000    0.0000    0.4149    -2.1737
EOT 5
12.000         Table ID parameter (Reynolds number in millions)
  0           Control setting
10.329         Stall angle (deg)
  0           Zero lift angle of attack (deg)
  0           Cn slope for zero lift (dimensionless)
  0           Cn at stall value for positive angle of attack
  0           Cn at stall value for negative angle of attack
  0           Angle of attack for minimum CD (deg)
  0           Minimum CD value
-180.000    0.0000    0.4149    -2.1737
-170.000    0.1527    0.4149    -2.1737
-160.000    0.3053    0.4287    -2.1737
-150.000    0.4316    0.5007    -2.1737
-140.000    0.3454    0.5895    -2.1737
-130.000    0.2769    0.6848    -2.1737
-120.000    0.2095    0.7755    -2.1737
-110.000    0.1390    0.8513    -2.1737
-100.000    0.0674    0.9038    -2.1737
-90.000    0.0000    0.9272    -2.1737
-80.000    -0.0674    0.9038    -2.1737
-70.000    -0.1390    0.8513    -2.1737
-60.000    -0.2095    0.7755    -2.1737
-50.000    -0.2769    0.6848    -2.1737
-40.000    -0.3454    0.5895    -2.1737
-30.000    -0.4316    0.5007    -2.1737
-20.000    -0.3281    0.4564    -2.1737
-10.000    -0.2869    0.4161    -2.8156
-7.000    -0.2087    0.4144    -2.4584
-6.000    -0.1624    0.4142    -2.3403
-5.000    -0.1149    0.4139    -2.2584
-4.000    -0.0659    0.4137    -2.1792
-3.000    -0.0157    0.4136    -2.1282
-2.000    0.0350    0.4134    -2.1384
-1.000    0.0859    0.4132    -2.1738
0.000    0.1368    0.4132    -2.2112
0.853    0.2389    0.4133    -2.2885
1.700    0.3329    0.4139    -2.3663
2.536    0.4171    0.4145    -2.4580
3.354    0.4707    0.4154    -2.5797
4.149    0.4977    0.4175    -2.7004
4.916    0.5316    0.4202    -2.9064
5.649    0.5586    0.4238    -3.1316
6.344    0.5809    0.4282    -3.3654
6.996    0.5995    0.4329    -3.6008
7.599    0.6131    0.4382    -3.8234
8.151    0.6208    0.4439    -4.0243
8.647    0.6297    0.4491    -4.2266
9.084    0.6386    0.4536    -4.4118
9.459    0.6416    0.4582    -4.5655
9.769    0.6435    0.4621    -4.6923
10.013    0.6446    0.4652    -4.7900
10.188    0.6451    0.4675    -4.8585
10.294    0.6453    0.4689    -4.8997
10.329    0.6454    0.4694    -4.9135
10.447    0.6454    0.4698    -4.9238
10.802    0.6453    0.4709    -4.9546
11.390    0.6452    0.4728    -5.0058
12.208    0.6448    0.4754    -5.0753
13.249    0.6430    0.4788    -5.1541
14.508    0.6402    0.4831    -5.2432
15.975    0.6363    0.4881    -5.3381
17.640    0.6290    0.4944    -5.3715
19.492    0.6131    0.5032    -5.1292
21.518    0.5987    0.5136    -4.7736
23.705    0.5832    0.5248    -4.3898
26.037    0.5666    0.5368    -3.9806
28.498    0.5491    0.5494    -3.5485
31.073    0.5308    0.5626    -3.0967
33.742    0.5119    0.5763    -2.6282
36.489    0.4926    0.5904    -2.1737
39.293    0.4768    0.6058    -2.1737
42.137    0.4607    0.6214    -2.1737
45.000    0.4445    0.6371    -2.1737
50.000    0.3956    0.6848    -2.1737
60.000    0.2993    0.7755    -2.1737
70.000    0.1986    0.8513    -2.1737
80.000    0.0963    0.9038    -2.1737
90.000    0.0000    0.9272    -2.1737
100.000    -0.0674    0.9038    -2.1737
110.000    -0.1390    0.8513    -2.1737
120.000    -0.2095    0.7755    -2.1737
130.000    -0.2769    0.6848    -2.1737
140.000    -0.3454    0.5895    -2.1737
150.000    -0.4316    0.5007    -2.1737
160.000    -0.3053    0.4287    -2.1737
170.000    -0.1527    0.4149    -2.1737
180.000    0.0000    0.4149    -2.1737
EOT 6
14.000         Table ID parameter (Reynolds number in millions)
  0           Control setting
10.329         Stall angle (deg)
  0           Zero lift angle of attack (deg)
  0           Cn slope for zero lift (dimensionless)
  0           Cn at stall value for positive angle of attack
  0           Cn at stall value for negative angle of attack
  0           Angle of attack for minimum CD (deg)
  0           Minimum CD value
-180.000    0.0000    0.4149    -2.1737
-170.000    0.1471    0.4149    -2.1737
-160.000    0.2942    0.4257    -2.1737
-150.000    0.4413    0.4980    -2.1737
-140.000    0.3513    0.5871    -2.1737
-130.000    0.2804    0.6827    -2.1737
-120.000    0.2113    0.7739    -2.1737
-110.000    0.1398    0.8503    -2.1737
-100.000    0.0676    0.9032    -2.1737
-90.000    0.0000    0.9272    -2.1737
-80.000    -0.0676    0.9032    -2.1737
-70.000    -0.1398    0.8503    -2.1737
-60.000    -0.2113    0.7739    -2.1737
-50.000    -0.2804    0.6827    -2.1737
-40.000    -0.3513    0.5871    -2.1737
-30.000    -0.4413    0.4980    -2.1737
-20.000    -0.3230    0.4569    -2.1737
-10.000    -0.2924    0.4159    -2.8273
-9.000    -0.2843    0.4151    -2.7302
-8.000    -0.2531    0.4146    -2.6035
-6.000    -0.1624    0.4141    -2.3393
-5.000    -0.1149    0.4138    -2.2583
-4.000    -0.0659    0.4136    -2.1791
-3.000    -0.0153    0.4136    -2.1284
-2.000    0.0354    0.4134    -2.1387
-1.000    0.0861    0.4132    -2.1738
0.000    0.1372    0.4131    -2.2115
0.853    0.2388    0.4133    -2.2881
1.700    0.3318    0.4139    -2.3666
2.536    0.4186    0.4145    -2.4596
3.354    0.4728    0.4153    -2.5834
4.149    0.5046    0.4175    -2.7321
4.916    0.5364    0.4199    -2.9164
5.649    0.5660    0.4233    -3.1512
6.344    0.5868    0.4277    -3.3840
6.996    0.6037    0.4326    -3.6157
7.599    0.6179    0.4377    -3.8427
8.151    0.6289    0.4430    -4.0628
8.647    0.6389    0.4479    -4.2606
9.084    0.6436    0.4529    -4.4343
9.459    0.6469    0.4575    -4.5925
9.769    0.6486    0.4614    -4.7194
10.013    0.6494    0.4645    -4.8167
10.188    0.6497    0.4669    -4.8846
10.294    0.6499    0.4682    -4.9256
10.329    0.6499    0.4687    -4.9393
10.447    0.6498    0.4691    -4.9492
10.802    0.6494    0.4703    -4.9786
11.390    0.6488    0.4722    -5.0274
12.208    0.6478    0.4749    -5.0944
13.249    0.6461    0.4784    -5.1740
14.508    0.6436    0.4826    -5.2656
15.975    0.6400    0.4875    -5.3648
17.640    0.6352    0.4932    -5.4650
19.492    0.6268    0.5005    -5.4402
21.518    0.6118    0.5109    -5.0472
23.705    0.5956    0.5222    -4.6231
26.037    0.5783    0.5342    -4.1707
28.498    0.5600    0.5468    -3.6932
31.073    0.5409    0.5600    -3.1939
33.742    0.5211    0.5738    -2.6760
36.489    0.5010    0.5879    -2.1737
39.293    0.4846    0.6034    -2.1737
42.137    0.4680    0.6191    -2.1737
45.000    0.4513    0.6349    -2.1737
50.000    0.4006    0.6827    -2.1737
60.000    0.3019    0.7739    -2.1737
70.000    0.1998    0.8503    -2.1737
80.000    0.0966    0.9032    -2.1737
90.000    0.0000    0.9272    -2.1737
100.000    -0.0676    0.9032    -2.1737
110.000    -0.1398    0.8503    -2.1737
120.000    -0.2113    0.7739    -2.1737
130.000    -0.2804    0.6827    -2.1737
140.000    -0.3513    0.5871    -2.1737
150.000    -0.4413    0.4980    -2.1737
160.000    -0.2942    0.4257    -2.1737
170.000    -0.1471    0.4149    -2.1737
180.000    0.0000    0.4149    -2.1737
EOT 7
