AeroDyn airfoil file.  Compatible with AeroDyn v13.0.
This file was generated automatically by HARP_Opt version 3.00.00_RC1.
This data represents a 43.3 percent thick airfoil, interpolated between the data in files NACA6_1000.dat and NACA6_0240.dat.
     7         Number of airfoil tables in this file
 2.000         Table ID parameter (Reynolds number in millions)
  0           Control setting
18.651         Stall angle (deg)
  0           Zero lift angle of attack (deg)
  0           Cn slope for zero lift (dimensionless)
  0           Cn at stall value for positive angle of attack
  0           Cn at stall value for negative angle of attack
  0           Angle of attack for minimum CD (deg)
  0           Minimum CD value
-180.000    0.0000    0.0836    -1.5079
-170.000    0.2328    0.0836    -1.5079
-160.000    0.4655    0.1289    -1.5079
-150.000    0.6983    0.2573    -1.5079
-140.000    0.5744    0.4156    -1.5079
-130.000    0.4709    0.5848    -1.5079
-120.000    0.3627    0.7456    -1.5079
-110.000    0.2443    0.8792    -1.5079
-100.000    0.1201    0.9702    -1.5079
-90.000    0.0000    1.0087    -1.5079
-80.000    -0.1201    0.9702    -1.5079
-70.000    -0.2443    0.8792    -1.5079
-60.000    -0.3627    0.7456    -1.5079
-50.000    -0.4709    0.5848    -1.5079
-40.000    -0.5744    0.4156    -1.5079
-30.000    -0.6983    0.2573    -1.5079
-20.000    -0.5060    0.1736    -1.5079
-10.000    -0.4481    0.0898    -2.5269
-9.000    -0.4255    0.0874    -2.3550
-8.000    -0.4029    0.0854    -2.1889
-7.000    -0.3628    0.0845    -1.9976
-6.000    -0.2918    0.0837    -1.8119
-5.000    -0.2111    0.0831    -1.6644
-4.000    -0.1268    0.0826    -1.5262
-3.000    -0.0408    0.0819    -1.4374
-2.000    0.0501    0.0817    -1.4368
-1.000    0.1406    0.0816    -1.4995
0.000    0.2307    0.0817    -1.5659
1.540    0.4162    0.0819    -1.7070
3.070    0.5920    0.0823    -1.8535
4.579    0.7371    0.0836    -2.0123
6.056    0.7889    0.0867    -2.1728
7.492    0.8472    0.0913    -2.3956
8.877    0.8729    0.0991    -2.6481
10.201    0.8954    0.1090    -2.9596
11.456    0.9231    0.1194    -3.2978
12.632    0.9541    0.1298    -3.6630
13.722    0.9789    0.1408    -4.0240
14.719    0.9988    0.1517    -4.3609
15.614    1.0147    0.1620    -4.6739
16.403    1.0300    0.1709    -4.9701
17.080    1.0359    0.1797    -5.2019
17.641    1.0398    0.1870    -5.3913
18.081    1.0417    0.1929    -5.5362
18.397    1.0420    0.1972    -5.6369
18.588    1.0422    0.1998    -5.6975
18.651    1.0422    0.2007    -5.7178
18.741    1.0420    0.2014    -5.7317
19.011    1.0413    0.2037    -5.7732
19.458    1.0400    0.2073    -5.8421
20.079    1.0379    0.2124    -5.9332
20.871    1.0323    0.2191    -6.0219
21.827    1.0256    0.2272    -6.1291
22.942    1.0165    0.2369    -6.2353
24.207    1.0044    0.2486    -6.3110
25.615    0.9925    0.2618    -6.2440
27.155    0.9718    0.2803    -5.6742
28.816    0.9495    0.3003    -5.0592
30.589    0.9257    0.3216    -4.4033
32.459    0.9006    0.3441    -3.7110
34.416    0.8743    0.3676    -2.9870
36.445    0.8470    0.3919    -2.2363
38.532    0.8192    0.4171    -1.5079
40.663    0.7953    0.4445    -1.5079
42.824    0.7711    0.4722    -1.5079
45.000    0.7466    0.5002    -1.5079
50.000    0.6727    0.5848    -1.5079
60.000    0.5181    0.7456    -1.5079
70.000    0.3490    0.8792    -1.5079
80.000    0.1716    0.9702    -1.5079
90.000    0.0000    1.0087    -1.5079
100.000    -0.1201    0.9702    -1.5079
110.000    -0.2443    0.8792    -1.5079
120.000    -0.3627    0.7456    -1.5079
130.000    -0.4709    0.5848    -1.5079
140.000    -0.5744    0.4156    -1.5079
150.000    -0.6983    0.2573    -1.5079
160.000    -0.4655    0.1289    -1.5079
170.000    -0.2328    0.0836    -1.5079
180.000    0.0000    0.0836    -1.5079
EOT 1
 4.000         Table ID parameter (Reynolds number in millions)
  0           Control setting
19.397         Stall angle (deg)
  0           Zero lift angle of attack (deg)
  0           Cn slope for zero lift (dimensionless)
  0           Cn at stall value for positive angle of attack
  0           Cn at stall value for negative angle of attack
  0           Angle of attack for minimum CD (deg)
  0           Minimum CD value
-180.000    0.0000    0.1776    -1.5079
-170.000    0.2440    0.1776    -1.5079
-160.000    0.4880    0.2139    -1.5079
-150.000    0.7320    0.3431    -1.5079
-140.000    0.5949    0.5022    -1.5079
-130.000    0.4830    0.6727    -1.5079
-120.000    0.3691    0.8348    -1.5079
-110.000    0.2471    0.9698    -1.5079
-100.000    0.1208    1.0625    -1.5079
-90.000    0.0000    1.1027    -1.5079
-80.000    -0.1208    1.0625    -1.5079
-70.000    -0.2471    0.9698    -1.5079
-60.000    -0.3691    0.8348    -1.5079
-50.000    -0.4830    0.6727    -1.5079
-40.000    -0.5949    0.5022    -1.5079
-30.000    -0.7320    0.3431    -1.5079
-20.000    -0.5348    0.2624    -1.5079
-10.000    -0.4825    0.1818    -2.5993
-9.000    -0.4473    0.1800    -2.3966
-8.000    -0.4328    0.1784    -2.2402
-7.000    -0.3693    0.1776    -2.0092
-6.000    -0.2917    0.1770    -1.8121
-5.000    -0.2096    0.1765    -1.6631
-4.000    -0.1223    0.1761    -1.5216
-3.000    -0.0339    0.1756    -1.4326
-1.000    0.1479    0.1750    -1.5038
0.000    0.2397    0.1749    -1.5715
1.602    0.4333    0.1751    -1.7200
3.193    0.6100    0.1760    -1.8731
4.762    0.7443    0.1777    -2.0284
6.298    0.8239    0.1803    -2.2433
7.792    0.8714    0.1856    -2.4684
9.232    0.9053    0.1935    -2.7866
10.609    0.9457    0.2024    -3.1720
11.914    0.9854    0.2120    -3.5836
13.137    1.0177    0.2226    -4.0082
14.271    1.0434    0.2337    -4.4089
15.307    1.0590    0.2455    -4.7773
16.239    1.0723    0.2566    -5.1208
17.059    1.0775    0.2672    -5.4060
17.764    1.0863    0.2757    -5.6897
18.346    1.0886    0.2834    -5.8994
18.804    1.0889    0.2895    -6.0550
19.133    1.0891    0.2939    -6.1653
19.331    1.0893    0.2965    -6.2318
19.397    1.0893    0.2974    -6.2540
19.485    1.0891    0.2981    -6.2684
19.747    1.0886    0.3001    -6.3114
20.181    1.0876    0.3035    -6.3828
20.785    1.0862    0.3081    -6.4811
21.554    1.0828    0.3142    -6.5888
22.483    1.0739    0.3223    -6.6790
23.566    1.0568    0.3326    -6.7240
24.796    1.0455    0.3432    -6.8093
26.164    1.0257    0.3593    -6.2709
27.660    1.0039    0.3770    -5.6818
29.275    0.9805    0.3961    -5.0462
30.997    0.9554    0.4164    -4.3682
32.814    0.9290    0.4379    -3.6526
34.716    0.9014    0.4603    -2.9042
36.687    0.8727    0.4836    -2.1282
38.715    0.8445    0.5079    -1.5079
40.786    0.8199    0.5341    -1.5079
42.886    0.7950    0.5607    -1.5079
45.000    0.7699    0.5874    -1.5079
50.000    0.6900    0.6727    -1.5079
60.000    0.5273    0.8348    -1.5079
70.000    0.3530    0.9698    -1.5079
80.000    0.1726    1.0625    -1.5079
90.000    0.0000    1.1027    -1.5079
100.000    -0.1208    1.0625    -1.5079
110.000    -0.2471    0.9698    -1.5079
120.000    -0.3691    0.8348    -1.5079
130.000    -0.4830    0.6727    -1.5079
140.000    -0.5949    0.5022    -1.5079
150.000    -0.7320    0.3431    -1.5079
160.000    -0.4880    0.2139    -1.5079
170.000    -0.2440    0.1776    -1.5079
180.000    0.0000    0.1776    -1.5079
EOT 2
 6.000         Table ID parameter (Reynolds number in millions)
  0           Control setting
18.651         Stall angle (deg)
  0           Zero lift angle of attack (deg)
  0           Cn slope for zero lift (dimensionless)
  0           Cn at stall value for positive angle of attack
  0           Cn at stall value for negative angle of attack
  0           Angle of attack for minimum CD (deg)
  0           Minimum CD value
-180.000    0.0000    0.1852    -1.5079
-170.000    0.2531    0.1852    -1.5079
-160.000    0.5061    0.2148    -1.5079
-150.000    0.7592    0.3445    -1.5079
-140.000    0.6115    0.5043    -1.5079
-130.000    0.4928    0.6757    -1.5079
-120.000    0.3744    0.8388    -1.5079
-110.000    0.2493    0.9750    -1.5079
-100.000    0.1214    1.0689    -1.5079
-90.000    0.0000    1.1103    -1.5079
-80.000    -0.1214    1.0689    -1.5079
-70.000    -0.2493    0.9750    -1.5079
-60.000    -0.3744    0.8388    -1.5079
-50.000    -0.4928    0.6757    -1.5079
-40.000    -0.6115    0.5043    -1.5079
-30.000    -0.7592    0.3445    -1.5079
-20.000    -0.5554    0.2664    -1.5079
-10.000    -0.5023    0.1883    -2.6410
-9.000    -0.4708    0.1866    -2.4399
-8.000    -0.4408    0.1856    -2.2542
-7.000    -0.3706    0.1849    -2.0113
-6.000    -0.2930    0.1843    -1.8141
-5.000    -0.2081    0.1838    -1.6614
-4.000    -0.1202    0.1835    -1.5192
-3.000    -0.0313    0.1831    -1.4311
-2.000    0.0592    0.1825    -1.4420
-1.000    0.1511    0.1823    -1.5057
0.000    0.2428    0.1823    -1.5732
1.540    0.4294    0.1826    -1.7160
3.070    0.6027    0.1833    -1.8635
4.579    0.7378    0.1850    -2.0094
6.056    0.8285    0.1867    -2.2164
7.492    0.8793    0.1910    -2.4396
8.877    0.9165    0.1975    -2.7393
10.201    0.9581    0.2052    -3.1129
11.456    0.9978    0.2137    -3.5086
12.632    1.0310    0.2229    -3.9159
13.722    1.0553    0.2332    -4.3034
14.719    1.0831    0.2421    -4.6999
15.614    1.0983    0.2519    -5.0354
16.403    1.1046    0.2618    -5.3242
17.080    1.1077    0.2707    -5.5670
17.641    1.1112    0.2779    -5.7830
18.081    1.1134    0.2836    -5.9504
18.397    1.1142    0.2878    -6.0665
18.588    1.1147    0.2903    -6.1365
18.651    1.1149    0.2912    -6.1598
18.741    1.1148    0.2919    -6.1766
19.011    1.1144    0.2940    -6.2269
19.458    1.1137    0.2974    -6.3102
20.079    1.1125    0.3023    -6.4236
20.871    1.1094    0.3087    -6.5533
21.827    1.1052    0.3164    -6.7025
22.942    1.0996    0.3255    -6.8640
24.207    1.0920    0.3359    -7.0251
25.615    1.0785    0.3491    -6.9759
27.155    1.0538    0.3677    -6.3179
28.816    1.0272    0.3879    -5.6080
30.589    0.9988    0.4094    -4.8507
32.459    0.9689    0.4321    -4.0515
34.416    0.9375    0.4558    -3.2156
36.445    0.9050    0.4804    -2.3488
38.532    0.8719    0.5059    -1.5079
40.663    0.8445    0.5336    -1.5079
42.824    0.8167    0.5617    -1.5079
45.000    0.7887    0.5900    -1.5079
50.000    0.7040    0.6757    -1.5079
60.000    0.5348    0.8388    -1.5079
70.000    0.3562    0.9750    -1.5079
80.000    0.1734    1.0689    -1.5079
90.000    0.0000    1.1103    -1.5079
100.000    -0.1214    1.0689    -1.5079
110.000    -0.2493    0.9750    -1.5079
120.000    -0.3744    0.8388    -1.5079
130.000    -0.4928    0.6757    -1.5079
140.000    -0.6115    0.5043    -1.5079
150.000    -0.7592    0.3445    -1.5079
160.000    -0.5061    0.2148    -1.5079
170.000    -0.2531    0.1852    -1.5079
180.000    0.0000    0.1852    -1.5079
EOT 3
 8.000         Table ID parameter (Reynolds number in millions)
  0           Control setting
18.651         Stall angle (deg)
  0           Zero lift angle of attack (deg)
  0           Cn slope for zero lift (dimensionless)
  0           Cn at stall value for positive angle of attack
  0           Cn at stall value for negative angle of attack
  0           Angle of attack for minimum CD (deg)
  0           Minimum CD value
-180.000    0.0000    0.1852    -1.5079
-170.000    0.3033    0.1852    -1.5079
-160.000    0.6065    0.2267    -1.5079
-150.000    0.7151    0.3555    -1.5079
-140.000    0.5846    0.5141    -1.5079
-130.000    0.4770    0.6839    -1.5079
-120.000    0.3659    0.8452    -1.5079
-110.000    0.2457    0.9793    -1.5079
-100.000    0.1205    1.0711    -1.5079
-90.000    0.0000    1.1103    -1.5079
-80.000    -0.1205    1.0711    -1.5079
-70.000    -0.2457    0.9793    -1.5079
-60.000    -0.3659    0.8452    -1.5079
-50.000    -0.4770    0.6839    -1.5079
-40.000    -0.5846    0.5141    -1.5079
-30.000    -0.7151    0.3555    -1.5079
-20.000    -0.6267    0.2576    -1.5079
-10.000    -0.5099    0.1879    -2.6629
-9.000    -0.4887    0.1860    -2.4737
-8.000    -0.4469    0.1852    -2.2651
-5.000    -0.2078    0.1837    -1.6609
-4.000    -0.1197    0.1833    -1.5188
-3.000    -0.0295    0.1830    -1.4227
-2.000    0.0608    0.1825    -1.4430
-1.000    0.1526    0.1822    -1.5065
0.000    0.2453    0.1822    -1.5749
1.540    0.4306    0.1824    -1.7170
3.070    0.6019    0.1834    -1.8569
4.579    0.7438    0.1848    -2.0104
6.056    0.8396    0.1863    -2.2294
7.492    0.8840    0.1909    -2.4606
8.877    0.9313    0.1965    -2.7704
10.201    0.9817    0.2034    -3.1762
11.456    1.0243    0.2112    -3.5854
12.632    1.0597    0.2199    -4.0102
13.722    1.0834    0.2297    -4.4022
14.719    1.1024    0.2398    -4.7764
15.614    1.1116    0.2503    -5.1028
16.403    1.1185    0.2599    -5.3887
17.080    1.1213    0.2688    -5.6433
17.641    1.1235    0.2761    -5.8541
18.081    1.1252    0.2818    -6.0195
18.397    1.1265    0.2860    -6.1385
18.588    1.1273    0.2885    -6.2102
18.651    1.1275    0.2893    -6.2342
18.741    1.1274    0.2900    -6.2517
19.011    1.1272    0.2921    -6.3039
19.458    1.1268    0.2955    -6.3905
20.079    1.1242    0.3006    -6.4662
20.871    1.1085    0.3090    -6.2984
21.827    1.0894    0.3192    -6.0956
22.942    1.0673    0.3311    -5.8592
24.207    1.0421    0.3445    -5.5909
25.615    1.0162    0.3600    -5.2619
27.155    0.9945    0.3785    -4.8102
28.816    0.9710    0.3985    -4.3228
30.589    0.9459    0.4199    -3.8029
32.459    0.9194    0.4424    -3.2542
34.416    0.8917    0.4660    -2.6803
36.445    0.8630    0.4904    -2.0852
38.532    0.8338    0.5156    -1.5079
40.663    0.8089    0.5431    -1.5079
42.824    0.7837    0.5709    -1.5079
45.000    0.7583    0.5990    -1.5079
50.000    0.6814    0.6839    -1.5079
60.000    0.5227    0.8452    -1.5079
70.000    0.3510    0.9793    -1.5079
80.000    0.1721    1.0711    -1.5079
90.000    0.0000    1.1103    -1.5079
100.000    -0.1205    1.0711    -1.5079
110.000    -0.2457    0.9793    -1.5079
120.000    -0.3659    0.8452    -1.5079
130.000    -0.4770    0.6839    -1.5079
140.000    -0.5846    0.5141    -1.5079
150.000    -0.7151    0.3555    -1.5079
160.000    -0.6065    0.2267    -1.5079
170.000    -0.3033    0.1852    -1.5079
180.000    0.0000    0.1852    -1.5079
EOT 4
10.000         Table ID parameter (Reynolds number in millions)
  0           Control setting
19.397         Stall angle (deg)
  0           Zero lift angle of attack (deg)
  0           Cn slope for zero lift (dimensionless)
  0           Cn at stall value for positive angle of attack
  0           Cn at stall value for negative angle of attack
  0           Angle of attack for minimum CD (deg)
  0           Minimum CD value
-180.000    0.0000    0.1852    -1.5079
-170.000    0.2617    0.1852    -1.5079
-160.000    0.5235    0.2076    -1.5079
-150.000    0.7852    0.3379    -1.5079
-140.000    0.6273    0.4985    -1.5079
-130.000    0.5022    0.6708    -1.5079
-120.000    0.3794    0.8350    -1.5079
-110.000    0.2515    0.9724    -1.5079
-100.000    0.1219    1.0676    -1.5079
-90.000    0.0000    1.1103    -1.5079
-80.000    -0.1219    1.0676    -1.5079
-70.000    -0.2515    0.9724    -1.5079
-60.000    -0.3794    0.8350    -1.5079
-50.000    -0.5022    0.6708    -1.5079
-40.000    -0.6273    0.4985    -1.5079
-30.000    -0.7852    0.3379    -1.5079
-20.000    -0.5704    0.2629    -1.5079
-10.000    -0.5081    0.1878    -2.6451
-9.000    -0.5111    0.1857    -2.5183
-8.000    -0.4522    0.1850    -2.2745
-6.000    -0.2940    0.1839    -1.8172
-4.000    -0.1191    0.1831    -1.5181
-3.000    -0.0289    0.1829    -1.4237
-2.000    0.0619    0.1825    -1.4436
-1.000    0.1542    0.1822    -1.5074
0.000    0.2463    0.1821    -1.5755
1.602    0.4375    0.1825    -1.7236
3.193    0.6129    0.1836    -1.8649
4.762    0.7653    0.1849    -2.0425
6.298    0.8554    0.1867    -2.2758
7.792    0.9016    0.1914    -2.5126
9.232    0.9588    0.1973    -2.9047
10.609    1.0110    0.2046    -3.3424
11.914    1.0536    0.2131    -3.7908
13.137    1.0843    0.2230    -4.2346
14.271    1.1074    0.2336    -4.6563
15.307    1.1199    0.2451    -5.0318
16.239    1.1300    0.2561    -5.3977
17.059    1.1406    0.2656    -5.7428
17.764    1.1497    0.2738    -6.0389
18.346    1.1532    0.2812    -6.2713
18.804    1.1544    0.2871    -6.4468
19.133    1.1545    0.2915    -6.5679
19.331    1.1546    0.2942    -6.6408
19.397    1.1546    0.2950    -6.6652
19.485    1.1544    0.2957    -6.6813
19.747    1.1538    0.2977    -6.7296
20.181    1.1529    0.3009    -6.8097
20.785    1.1514    0.3054    -6.9200
21.554    1.1472    0.3115    -7.0406
22.483    1.1412    0.3189    -7.1756
23.566    1.1326    0.3278    -7.3131
24.796    1.1216    0.3380    -7.4418
26.164    1.0987    0.3543    -6.8392
27.660    1.0737    0.3722    -6.1799
29.275    1.0466    0.3914    -5.4684
30.997    1.0178    0.4119    -4.7095
32.814    0.9874    0.4336    -3.9085
34.716    0.9555    0.4562    -3.0708
36.687    0.9225    0.4797    -2.2022
38.715    0.8902    0.5043    -1.5079
40.786    0.8627    0.5308    -1.5079
42.886    0.8348    0.5576    -1.5079
45.000    0.8067    0.5847    -1.5079
50.000    0.7173    0.6708    -1.5079
60.000    0.5420    0.8350    -1.5079
70.000    0.3593    0.9724    -1.5079
80.000    0.1741    1.0676    -1.5079
90.000    0.0000    1.1103    -1.5079
100.000    -0.1219    1.0676    -1.5079
110.000    -0.2515    0.9724    -1.5079
120.000    -0.3794    0.8350    -1.5079
130.000    -0.5022    0.6708    -1.5079
140.000    -0.6273    0.4985    -1.5079
150.000    -0.7852    0.3379    -1.5079
160.000    -0.5235    0.2076    -1.5079
170.000    -0.2617    0.1852    -1.5079
180.000    0.0000    0.1852    -1.5079
EOT 5
12.000         Table ID parameter (Reynolds number in millions)
  0           Control setting
18.651         Stall angle (deg)
  0           Zero lift angle of attack (deg)
  0           Cn slope for zero lift (dimensionless)
  0           Cn at stall value for positive angle of attack
  0           Cn at stall value for negative angle of attack
  0           Angle of attack for minimum CD (deg)
  0           Minimum CD value
-180.000    0.0000    0.1852    -1.5079
-170.000    0.2757    0.1852    -1.5079
-160.000    0.5513    0.2101    -1.5079
-150.000    0.7794    0.3401    -1.5079
-140.000    0.6238    0.5005    -1.5079
-130.000    0.5001    0.6725    -1.5079
-120.000    0.3782    0.8363    -1.5079
-110.000    0.2510    0.9733    -1.5079
-100.000    0.1218    1.0680    -1.5079
-90.000    0.0000    1.1103    -1.5079
-80.000    -0.1218    1.0680    -1.5079
-70.000    -0.2510    0.9733    -1.5079
-60.000    -0.3782    0.8363    -1.5079
-50.000    -0.5001    0.6725    -1.5079
-40.000    -0.6238    0.5005    -1.5079
-30.000    -0.7794    0.3401    -1.5079
-20.000    -0.5925    0.2601    -1.5079
-10.000    -0.5181    0.1874    -2.6671
-7.000    -0.3768    0.1843    -2.0219
-6.000    -0.2933    0.1839    -1.8088
-5.000    -0.2075    0.1834    -1.6609
-4.000    -0.1190    0.1831    -1.5178
-3.000    -0.0283    0.1828    -1.4258
-2.000    0.0631    0.1825    -1.4442
-1.000    0.1550    0.1821    -1.5080
0.000    0.2469    0.1821    -1.5756
1.540    0.4314    0.1823    -1.7152
3.070    0.6011    0.1834    -1.8558
4.579    0.7532    0.1845    -2.0213
6.056    0.8500    0.1861    -2.2411
7.492    0.8987    0.1899    -2.4590
8.877    0.9600    0.1948    -2.8310
10.201    1.0087    0.2013    -3.2377
11.456    1.0489    0.2092    -3.6597
12.632    1.0825    0.2177    -4.0849
13.722    1.1071    0.2272    -4.4868
14.719    1.1211    0.2375    -4.8496
15.614    1.1371    0.2469    -5.2149
16.403    1.1531    0.2550    -5.5494
17.080    1.1586    0.2634    -5.8269
17.641    1.1620    0.2704    -6.0558
18.081    1.1639    0.2761    -6.2323
18.397    1.1648    0.2802    -6.3559
18.588    1.1653    0.2827    -6.4304
18.651    1.1655    0.2836    -6.4553
18.741    1.1654    0.2842    -6.4739
19.011    1.1653    0.2863    -6.5295
19.458    1.1650    0.2897    -6.6219
20.079    1.1643    0.2944    -6.7474
20.871    1.1610    0.3006    -6.8897
21.827    1.1560    0.3083    -7.0505
22.942    1.1490    0.3174    -7.2219
24.207    1.1357    0.3287    -7.2823
25.615    1.1071    0.3447    -6.8448
27.155    1.0811    0.3634    -6.2027
28.816    1.0531    0.3837    -5.5097
30.589    1.0232    0.4052    -4.7706
32.459    0.9916    0.4280    -3.9905
34.416    0.9586    0.4518    -3.1747
36.445    0.9243    0.4765    -2.3287
38.532    0.8895    0.5021    -1.5079
40.663    0.8609    0.5299    -1.5079
42.824    0.8319    0.5581    -1.5079
45.000    0.8027    0.5865    -1.5079
50.000    0.7143    0.6725    -1.5079
60.000    0.5404    0.8363    -1.5079
70.000    0.3586    0.9733    -1.5079
80.000    0.1740    1.0680    -1.5079
90.000    0.0000    1.1103    -1.5079
100.000    -0.1218    1.0680    -1.5079
110.000    -0.2510    0.9733    -1.5079
120.000    -0.3782    0.8363    -1.5079
130.000    -0.5001    0.6725    -1.5079
140.000    -0.6238    0.5005    -1.5079
150.000    -0.7794    0.3401    -1.5079
160.000    -0.5513    0.2101    -1.5079
170.000    -0.2757    0.1852    -1.5079
180.000    0.0000    0.1852    -1.5079
EOT 6
14.000         Table ID parameter (Reynolds number in millions)
  0           Control setting
18.651         Stall angle (deg)
  0           Zero lift angle of attack (deg)
  0           Cn slope for zero lift (dimensionless)
  0           Cn at stall value for positive angle of attack
  0           Cn at stall value for negative angle of attack
  0           Angle of attack for minimum CD (deg)
  0           Minimum CD value
-180.000    0.0000    0.1852    -1.5079
-170.000    0.2657    0.1852    -1.5079
-160.000    0.5313    0.2047    -1.5079
-150.000    0.7969    0.3352    -1.5079
-140.000    0.6344    0.4961    -1.5079
-130.000    0.5063    0.6688    -1.5079
-120.000    0.3816    0.8335    -1.5079
-110.000    0.2525    0.9713    -1.5079
-100.000    0.1221    1.0670    -1.5079
-90.000    0.0000    1.1103    -1.5079
-80.000    -0.1221    1.0670    -1.5079
-70.000    -0.2525    0.9713    -1.5079
-60.000    -0.3816    0.8335    -1.5079
-50.000    -0.5063    0.6688    -1.5079
-40.000    -0.6344    0.4961    -1.5079
-30.000    -0.7969    0.3352    -1.5079
-20.000    -0.5833    0.2611    -1.5079
-10.000    -0.5281    0.1870    -2.6881
-9.000    -0.5134    0.1856    -2.5129
-8.000    -0.4571    0.1846    -2.2840
-6.000    -0.2932    0.1838    -1.8070
-5.000    -0.2074    0.1833    -1.6607
-4.000    -0.1189    0.1829    -1.5177
-3.000    -0.0277    0.1828    -1.4261
-2.000    0.0639    0.1825    -1.4447
-1.000    0.1554    0.1821    -1.5082
0.000    0.2477    0.1820    -1.5762
1.540    0.4313    0.1823    -1.7145
3.070    0.5991    0.1834    -1.8562
4.579    0.7559    0.1845    -2.0243
6.056    0.8537    0.1860    -2.2477
7.492    0.9111    0.1899    -2.5163
8.877    0.9686    0.1943    -2.8491
10.201    1.0220    0.2004    -3.2730
11.456    1.0596    0.2083    -3.6934
12.632    1.0901    0.2171    -4.1117
13.722    1.1157    0.2263    -4.5217
14.719    1.1357    0.2360    -4.9191
15.614    1.1536    0.2447    -5.2764
16.403    1.1621    0.2538    -5.5900
17.080    1.1682    0.2621    -5.8756
17.641    1.1712    0.2692    -6.1047
18.081    1.1727    0.2748    -6.2804
18.397    1.1732    0.2790    -6.4032
18.588    1.1735    0.2815    -6.4772
18.651    1.1736    0.2824    -6.5019
18.741    1.1734    0.2831    -6.5197
19.011    1.1727    0.2852    -6.5728
19.458    1.1716    0.2887    -6.6610
20.079    1.1698    0.2935    -6.7818
20.871    1.1666    0.2998    -6.9257
21.827    1.1621    0.3074    -7.0910
22.942    1.1557    0.3164    -7.2702
24.207    1.1470    0.3267    -7.4511
25.615    1.1318    0.3398    -7.4064
27.155    1.1047    0.3586    -6.6967
28.816    1.0754    0.3789    -5.9308
30.589    1.0442    0.4005    -5.1140
32.459    1.0112    0.4234    -4.2518
34.416    0.9767    0.4473    -3.3501
36.445    0.9410    0.4721    -2.4150
38.532    0.9047    0.4977    -1.5079
40.663    0.8751    0.5256    -1.5079
42.824    0.8451    0.5539    -1.5079
45.000    0.8148    0.5825    -1.5079
50.000    0.7234    0.6688    -1.5079
60.000    0.5452    0.8335    -1.5079
70.000    0.3607    0.9713    -1.5079
80.000    0.1745    1.0670    -1.5079
90.000    0.0000    1.1103    -1.5079
100.000    -0.1221    1.0670    -1.5079
110.000    -0.2525    0.9713    -1.5079
120.000    -0.3816    0.8335    -1.5079
130.000    -0.5063    0.6688    -1.5079
140.000    -0.6344    0.4961    -1.5079
150.000    -0.7969    0.3352    -1.5079
160.000    -0.5313    0.2047    -1.5079
170.000    -0.2657    0.1852    -1.5079
180.000    0.0000    0.1852    -1.5079
EOT 7
