AeroDyn airfoil file.  Compatible with AeroDyn v13.0.
This file was generated automatically by HARP_Opt version 3.00.00_RC1.
This data represents a 83.8 percent thick airfoil, interpolated between the data in files NACA6_1000.dat and NACA6_0240.dat.
     7         Number of airfoil tables in this file
 2.000         Table ID parameter (Reynolds number in millions)
  0           Control setting
 5.329         Stall angle (deg)
  0           Zero lift angle of attack (deg)
  0           Cn slope for zero lift (dimensionless)
  0           Cn at stall value for positive angle of attack
  0           Cn at stall value for negative angle of attack
  0           Angle of attack for minimum CD (deg)
  0           Minimum CD value
-180.000    0.0000    0.2382    -2.5737
-170.000    0.0665    0.2382    -2.5737
-160.000    0.1330    0.2511    -2.5737
-150.000    0.1995    0.2878    -2.5737
-140.000    0.1641    0.3330    -2.5737
-130.000    0.1345    0.3814    -2.5737
-120.000    0.1036    0.4273    -2.5737
-110.000    0.0698    0.4655    -2.5737
-100.000    0.0343    0.4915    -2.5737
-90.000    0.0000    0.5025    -2.5737
-80.000    -0.0343    0.4915    -2.5737
-70.000    -0.0698    0.4655    -2.5737
-60.000    -0.1036    0.4273    -2.5737
-50.000    -0.1345    0.3814    -2.5737
-40.000    -0.1641    0.3330    -2.5737
-30.000    -0.1995    0.2878    -2.5737
-20.000    -0.1446    0.2639    -2.5737
-10.000    -0.1280    0.2400    -2.8648
-9.000    -0.1216    0.2393    -2.8157
-8.000    -0.1151    0.2387    -2.7683
-7.000    -0.1037    0.2384    -2.7136
-6.000    -0.0834    0.2382    -2.6605
-5.000    -0.0603    0.2380    -2.6184
-4.000    -0.0362    0.2379    -2.5789
-3.000    -0.0117    0.2377    -2.5535
-2.000    0.0143    0.2376    -2.5534
-1.000    0.0402    0.2376    -2.5713
0.000    0.0659    0.2376    -2.5902
0.440    0.1189    0.2377    -2.6306
0.877    0.1691    0.2378    -2.6724
1.308    0.2106    0.2382    -2.7178
1.730    0.2254    0.2390    -2.7637
2.141    0.2420    0.2404    -2.8273
2.536    0.2494    0.2426    -2.8994
2.915    0.2558    0.2454    -2.9885
3.273    0.2637    0.2484    -3.0851
3.609    0.2726    0.2514    -3.1894
3.921    0.2797    0.2545    -3.2926
4.205    0.2854    0.2576    -3.3888
4.461    0.2899    0.2606    -3.4782
4.687    0.2943    0.2631    -3.5629
4.880    0.2960    0.2656    -3.6291
5.040    0.2971    0.2677    -3.6832
5.166    0.2976    0.2694    -3.7246
5.256    0.2977    0.2706    -3.7534
5.311    0.2978    0.2714    -3.7707
5.329    0.2978    0.2716    -3.7765
5.464    0.2977    0.2718    -3.7805
5.870    0.2975    0.2725    -3.7923
6.543    0.2972    0.2735    -3.8120
7.478    0.2965    0.2750    -3.8381
8.670    0.2949    0.2769    -3.8634
10.110    0.2930    0.2792    -3.8940
11.789    0.2904    0.2820    -3.9244
13.694    0.2870    0.2853    -3.9460
15.813    0.2836    0.2891    -3.9269
18.132    0.2777    0.2944    -3.7640
20.634    0.2713    0.3001    -3.5883
23.302    0.2645    0.3062    -3.4009
26.119    0.2573    0.3126    -3.2031
29.064    0.2498    0.3193    -2.9963
32.119    0.2420    0.3263    -2.7818
35.261    0.2341    0.3335    -2.5737
38.470    0.2272    0.3413    -2.5737
41.724    0.2203    0.3492    -2.5737
45.000    0.2133    0.3572    -2.5737
50.000    0.1922    0.3814    -2.5737
60.000    0.1480    0.4273    -2.5737
70.000    0.0997    0.4655    -2.5737
80.000    0.0490    0.4915    -2.5737
90.000    0.0000    0.5025    -2.5737
100.000    -0.0343    0.4915    -2.5737
110.000    -0.0698    0.4655    -2.5737
120.000    -0.1036    0.4273    -2.5737
130.000    -0.1345    0.3814    -2.5737
140.000    -0.1641    0.3330    -2.5737
150.000    -0.1995    0.2878    -2.5737
160.000    -0.1330    0.2511    -2.5737
170.000    -0.0665    0.2382    -2.5737
180.000    0.0000    0.2382    -2.5737
EOT 1
 4.000         Table ID parameter (Reynolds number in millions)
  0           Control setting
 5.542         Stall angle (deg)
  0           Zero lift angle of attack (deg)
  0           Cn slope for zero lift (dimensionless)
  0           Cn at stall value for positive angle of attack
  0           Cn at stall value for negative angle of attack
  0           Angle of attack for minimum CD (deg)
  0           Minimum CD value
-180.000    0.0000    0.5293    -2.5737
-170.000    0.0697    0.5293    -2.5737
-160.000    0.1394    0.5397    -2.5737
-150.000    0.2091    0.5766    -2.5737
-140.000    0.1700    0.6221    -2.5737
-130.000    0.1380    0.6708    -2.5737
-120.000    0.1055    0.7171    -2.5737
-110.000    0.0706    0.7557    -2.5737
-100.000    0.0345    0.7821    -2.5737
-90.000    0.0000    0.7936    -2.5737
-80.000    -0.0345    0.7821    -2.5737
-70.000    -0.0706    0.7557    -2.5737
-60.000    -0.1055    0.7171    -2.5737
-50.000    -0.1380    0.6708    -2.5737
-40.000    -0.1700    0.6221    -2.5737
-30.000    -0.2091    0.5766    -2.5737
-20.000    -0.1528    0.5536    -2.5737
-10.000    -0.1378    0.5305    -2.8855
-9.000    -0.1278    0.5300    -2.8276
-8.000    -0.1237    0.5296    -2.7829
-7.000    -0.1055    0.5293    -2.7169
-6.000    -0.0833    0.5291    -2.6606
-5.000    -0.0599    0.5290    -2.6180
-4.000    -0.0349    0.5289    -2.5776
-3.000    -0.0097    0.5287    -2.5522
-1.000    0.0422    0.5286    -2.5725
0.000    0.0685    0.5285    -2.5919
0.458    0.1238    0.5286    -2.6343
0.912    0.1743    0.5289    -2.6780
1.361    0.2127    0.5293    -2.7224
1.800    0.2354    0.5301    -2.7838
2.226    0.2490    0.5316    -2.8481
2.638    0.2587    0.5339    -2.9390
3.031    0.2702    0.5364    -3.0491
3.404    0.2815    0.5392    -3.1667
3.754    0.2908    0.5422    -3.2881
4.077    0.2981    0.5454    -3.4025
4.373    0.3026    0.5487    -3.5078
4.640    0.3064    0.5519    -3.6059
4.874    0.3079    0.5549    -3.6874
5.075    0.3104    0.5573    -3.7685
5.242    0.3110    0.5595    -3.8284
5.373    0.3111    0.5613    -3.8729
5.467    0.3112    0.5625    -3.9044
5.523    0.3112    0.5633    -3.9234
5.542    0.3112    0.5635    -3.9297
5.677    0.3112    0.5637    -3.9338
6.080    0.3110    0.5643    -3.9461
6.750    0.3107    0.5653    -3.9665
7.680    0.3104    0.5666    -3.9946
8.866    0.3094    0.5684    -4.0254
10.298    0.3068    0.5707    -4.0511
11.967    0.3019    0.5736    -4.0640
13.862    0.2987    0.5766    -4.0884
15.970    0.2930    0.5812    -3.9345
18.276    0.2868    0.5863    -3.7662
20.764    0.2801    0.5917    -3.5846
23.419    0.2730    0.5975    -3.3909
26.220    0.2654    0.6037    -3.1865
29.150    0.2575    0.6101    -2.9726
32.188    0.2494    0.6167    -2.7509
35.314    0.2413    0.6237    -2.5737
38.505    0.2343    0.6312    -2.5737
41.742    0.2271    0.6388    -2.5737
45.000    0.2200    0.6464    -2.5737
50.000    0.1971    0.6708    -2.5737
60.000    0.1507    0.7171    -2.5737
70.000    0.1008    0.7557    -2.5737
80.000    0.0493    0.7821    -2.5737
90.000    0.0000    0.7936    -2.5737
100.000    -0.0345    0.7821    -2.5737
110.000    -0.0706    0.7557    -2.5737
120.000    -0.1055    0.7171    -2.5737
130.000    -0.1380    0.6708    -2.5737
140.000    -0.1700    0.6221    -2.5737
150.000    -0.2091    0.5766    -2.5737
160.000    -0.1394    0.5397    -2.5737
170.000    -0.0697    0.5293    -2.5737
180.000    0.0000    0.5293    -2.5737
EOT 2
 6.000         Table ID parameter (Reynolds number in millions)
  0           Control setting
 5.329         Stall angle (deg)
  0           Zero lift angle of attack (deg)
  0           Cn slope for zero lift (dimensionless)
  0           Cn at stall value for positive angle of attack
  0           Cn at stall value for negative angle of attack
  0           Angle of attack for minimum CD (deg)
  0           Minimum CD value
-180.000    0.0000    0.5529    -2.5737
-170.000    0.0723    0.5529    -2.5737
-160.000    0.1446    0.5614    -2.5737
-150.000    0.2169    0.5984    -2.5737
-140.000    0.1747    0.6441    -2.5737
-130.000    0.1408    0.6931    -2.5737
-120.000    0.1070    0.7397    -2.5737
-110.000    0.0712    0.7786    -2.5737
-100.000    0.0347    0.8054    -2.5737
-90.000    0.0000    0.8172    -2.5737
-80.000    -0.0347    0.8054    -2.5737
-70.000    -0.0712    0.7786    -2.5737
-60.000    -0.1070    0.7397    -2.5737
-50.000    -0.1408    0.6931    -2.5737
-40.000    -0.1747    0.6441    -2.5737
-30.000    -0.2169    0.5984    -2.5737
-20.000    -0.1587    0.5761    -2.5737
-10.000    -0.1435    0.5538    -2.8974
-9.000    -0.1345    0.5533    -2.8400
-8.000    -0.1259    0.5530    -2.7869
-7.000    -0.1059    0.5528    -2.7175
-6.000    -0.0837    0.5527    -2.6612
-5.000    -0.0594    0.5525    -2.6175
-4.000    -0.0343    0.5524    -2.5769
-3.000    -0.0089    0.5523    -2.5517
-2.000    0.0169    0.5522    -2.5549
-1.000    0.0432    0.5521    -2.5731
0.000    0.0694    0.5521    -2.5924
0.440    0.1227    0.5522    -2.6331
0.877    0.1722    0.5524    -2.6753
1.308    0.2108    0.5529    -2.7170
1.730    0.2367    0.5533    -2.7761
2.141    0.2512    0.5546    -2.8399
2.536    0.2619    0.5564    -2.9255
2.915    0.2737    0.5586    -3.0323
3.273    0.2851    0.5610    -3.1453
3.609    0.2946    0.5637    -3.2617
3.921    0.3015    0.5666    -3.3724
4.205    0.3095    0.5692    -3.4857
4.461    0.3138    0.5720    -3.5815
4.687    0.3156    0.5748    -3.6640
4.880    0.3165    0.5773    -3.7334
5.040    0.3175    0.5794    -3.7951
5.166    0.3181    0.5810    -3.8430
5.256    0.3183    0.5822    -3.8761
5.311    0.3185    0.5829    -3.8961
5.329    0.3185    0.5832    -3.9028
5.464    0.3185    0.5834    -3.9076
5.870    0.3184    0.5840    -3.9220
6.543    0.3182    0.5850    -3.9458
7.478    0.3179    0.5864    -3.9782
8.670    0.3170    0.5882    -4.0152
10.110    0.3158    0.5904    -4.0579
11.789    0.3142    0.5930    -4.1040
13.694    0.3120    0.5960    -4.1500
15.813    0.3081    0.5997    -4.1360
18.132    0.3011    0.6051    -3.9480
20.634    0.2935    0.6108    -3.7451
23.302    0.2854    0.6170    -3.5288
26.119    0.2768    0.6235    -3.3004
29.064    0.2679    0.6302    -3.0616
32.119    0.2586    0.6373    -2.8139
35.261    0.2491    0.6445    -2.5737
38.470    0.2413    0.6525    -2.5737
41.724    0.2333    0.6605    -2.5737
45.000    0.2254    0.6686    -2.5737
50.000    0.2011    0.6931    -2.5737
60.000    0.1528    0.7397    -2.5737
70.000    0.1018    0.7786    -2.5737
80.000    0.0495    0.8054    -2.5737
90.000    0.0000    0.8172    -2.5737
100.000    -0.0347    0.8054    -2.5737
110.000    -0.0712    0.7786    -2.5737
120.000    -0.1070    0.7397    -2.5737
130.000    -0.1408    0.6931    -2.5737
140.000    -0.1747    0.6441    -2.5737
150.000    -0.2169    0.5984    -2.5737
160.000    -0.1446    0.5614    -2.5737
170.000    -0.0723    0.5529    -2.5737
180.000    0.0000    0.5529    -2.5737
EOT 3
 8.000         Table ID parameter (Reynolds number in millions)
  0           Control setting
 5.329         Stall angle (deg)
  0           Zero lift angle of attack (deg)
  0           Cn slope for zero lift (dimensionless)
  0           Cn at stall value for positive angle of attack
  0           Cn at stall value for negative angle of attack
  0           Angle of attack for minimum CD (deg)
  0           Minimum CD value
-180.000    0.0000    0.5529    -2.5737
-170.000    0.0866    0.5529    -2.5737
-160.000    0.1733    0.5648    -2.5737
-150.000    0.2043    0.6016    -2.5737
-140.000    0.1670    0.6469    -2.5737
-130.000    0.1363    0.6954    -2.5737
-120.000    0.1045    0.7415    -2.5737
-110.000    0.0702    0.7798    -2.5737
-100.000    0.0344    0.8060    -2.5737
-90.000    0.0000    0.8172    -2.5737
-80.000    -0.0344    0.8060    -2.5737
-70.000    -0.0702    0.7798    -2.5737
-60.000    -0.1045    0.7415    -2.5737
-50.000    -0.1363    0.6954    -2.5737
-40.000    -0.1670    0.6469    -2.5737
-30.000    -0.2043    0.6016    -2.5737
-20.000    -0.1791    0.5736    -2.5737
-10.000    -0.1457    0.5537    -2.9037
-9.000    -0.1396    0.5531    -2.8496
-8.000    -0.1277    0.5529    -2.7900
-5.000    -0.0594    0.5525    -2.6174
-4.000    -0.0342    0.5524    -2.5768
-3.000    -0.0084    0.5523    -2.5493
-2.000    0.0174    0.5522    -2.5551
-1.000    0.0436    0.5521    -2.5733
0.000    0.0701    0.5520    -2.5928
0.440    0.1230    0.5521    -2.6334
0.877    0.1720    0.5524    -2.6734
1.308    0.2125    0.5528    -2.7173
1.730    0.2399    0.5532    -2.7798
2.141    0.2526    0.5546    -2.8459
2.536    0.2661    0.5562    -2.9344
2.915    0.2805    0.5581    -3.0503
3.273    0.2927    0.5603    -3.1672
3.609    0.3028    0.5628    -3.2886
3.921    0.3096    0.5656    -3.4006
4.205    0.3150    0.5685    -3.5075
4.461    0.3176    0.5715    -3.6008
4.687    0.3196    0.5743    -3.6825
4.880    0.3204    0.5768    -3.7552
5.040    0.3210    0.5789    -3.8154
5.166    0.3215    0.5805    -3.8627
5.256    0.3219    0.5817    -3.8967
5.311    0.3221    0.5824    -3.9172
5.329    0.3221    0.5827    -3.9241
5.464    0.3221    0.5829    -3.9290
5.870    0.3221    0.5834    -3.9440
6.543    0.3219    0.5844    -3.9687
7.478    0.3212    0.5859    -3.9903
8.670    0.3167    0.5883    -3.9424
10.110    0.3113    0.5912    -3.8844
11.789    0.3049    0.5946    -3.8169
13.694    0.2977    0.5984    -3.7403
15.813    0.2904    0.6029    -3.6463
18.132    0.2841    0.6082    -3.5172
20.634    0.2774    0.6139    -3.3779
23.302    0.2703    0.6200    -3.2294
26.119    0.2627    0.6264    -3.0726
29.064    0.2548    0.6331    -2.9087
32.119    0.2466    0.6401    -2.7386
35.261    0.2382    0.6473    -2.5737
38.470    0.2311    0.6552    -2.5737
41.724    0.2239    0.6631    -2.5737
45.000    0.2167    0.6711    -2.5737
50.000    0.1947    0.6954    -2.5737
60.000    0.1493    0.7415    -2.5737
70.000    0.1003    0.7798    -2.5737
80.000    0.0492    0.8060    -2.5737
90.000    0.0000    0.8172    -2.5737
100.000    -0.0344    0.8060    -2.5737
110.000    -0.0702    0.7798    -2.5737
120.000    -0.1045    0.7415    -2.5737
130.000    -0.1363    0.6954    -2.5737
140.000    -0.1670    0.6469    -2.5737
150.000    -0.2043    0.6016    -2.5737
160.000    -0.1733    0.5648    -2.5737
170.000    -0.0866    0.5529    -2.5737
180.000    0.0000    0.5529    -2.5737
EOT 4
10.000         Table ID parameter (Reynolds number in millions)
  0           Control setting
 5.542         Stall angle (deg)
  0           Zero lift angle of attack (deg)
  0           Cn slope for zero lift (dimensionless)
  0           Cn at stall value for positive angle of attack
  0           Cn at stall value for negative angle of attack
  0           Angle of attack for minimum CD (deg)
  0           Minimum CD value
-180.000    0.0000    0.5529    -2.5737
-170.000    0.0748    0.5529    -2.5737
-160.000    0.1496    0.5593    -2.5737
-150.000    0.2243    0.5966    -2.5737
-140.000    0.1792    0.6424    -2.5737
-130.000    0.1435    0.6917    -2.5737
-120.000    0.1084    0.7386    -2.5737
-110.000    0.0719    0.7778    -2.5737
-100.000    0.0348    0.8050    -2.5737
-90.000    0.0000    0.8172    -2.5737
-80.000    -0.0348    0.8050    -2.5737
-70.000    -0.0719    0.7778    -2.5737
-60.000    -0.1084    0.7386    -2.5737
-50.000    -0.1435    0.6917    -2.5737
-40.000    -0.1792    0.6424    -2.5737
-30.000    -0.2243    0.5966    -2.5737
-20.000    -0.1630    0.5751    -2.5737
-10.000    -0.1452    0.5537    -2.8986
-9.000    -0.1460    0.5530    -2.8624
-8.000    -0.1292    0.5529    -2.7927
-6.000    -0.0840    0.5525    -2.6621
-4.000    -0.0340    0.5523    -2.5766
-3.000    -0.0083    0.5523    -2.5496
-2.000    0.0177    0.5522    -2.5553
-1.000    0.0441    0.5520    -2.5736
0.000    0.0704    0.5520    -2.5930
0.458    0.1250    0.5521    -2.6353
0.912    0.1751    0.5524    -2.6757
1.361    0.2187    0.5528    -2.7264
1.800    0.2444    0.5533    -2.7931
2.226    0.2576    0.5547    -2.8608
2.638    0.2740    0.5564    -2.9728
3.031    0.2889    0.5584    -3.0978
3.404    0.3010    0.5609    -3.2260
3.754    0.3098    0.5637    -3.3527
4.077    0.3164    0.5667    -3.4732
4.373    0.3200    0.5700    -3.5805
4.640    0.3229    0.5732    -3.6851
4.874    0.3259    0.5759    -3.7837
5.075    0.3285    0.5782    -3.8683
5.242    0.3295    0.5803    -3.9347
5.373    0.3298    0.5820    -3.9848
5.467    0.3299    0.5833    -4.0194
5.523    0.3299    0.5840    -4.0402
5.542    0.3299    0.5843    -4.0472
5.677    0.3298    0.5845    -4.0518
6.080    0.3297    0.5850    -4.0656
6.750    0.3294    0.5860    -4.0885
7.680    0.3290    0.5873    -4.1200
8.866    0.3278    0.5890    -4.1545
10.298    0.3261    0.5911    -4.1930
11.967    0.3236    0.5937    -4.2323
13.862    0.3205    0.5966    -4.2691
15.970    0.3139    0.6012    -4.0969
18.276    0.3068    0.6063    -3.9085
20.764    0.2990    0.6118    -3.7052
23.419    0.2908    0.6177    -3.4884
26.220    0.2821    0.6239    -3.2596
29.150    0.2730    0.6304    -3.0202
32.188    0.2636    0.6371    -2.7721
35.314    0.2543    0.6441    -2.5737
38.505    0.2465    0.6516    -2.5737
41.742    0.2385    0.6593    -2.5737
45.000    0.2305    0.6670    -2.5737
50.000    0.2050    0.6917    -2.5737
60.000    0.1549    0.7386    -2.5737
70.000    0.1027    0.7778    -2.5737
80.000    0.0498    0.8050    -2.5737
90.000    0.0000    0.8172    -2.5737
100.000    -0.0348    0.8050    -2.5737
110.000    -0.0719    0.7778    -2.5737
120.000    -0.1084    0.7386    -2.5737
130.000    -0.1435    0.6917    -2.5737
140.000    -0.1792    0.6424    -2.5737
150.000    -0.2243    0.5966    -2.5737
160.000    -0.1496    0.5593    -2.5737
170.000    -0.0748    0.5529    -2.5737
180.000    0.0000    0.5529    -2.5737
EOT 5
12.000         Table ID parameter (Reynolds number in millions)
  0           Control setting
 5.329         Stall angle (deg)
  0           Zero lift angle of attack (deg)
  0           Cn slope for zero lift (dimensionless)
  0           Cn at stall value for positive angle of attack
  0           Cn at stall value for negative angle of attack
  0           Angle of attack for minimum CD (deg)
  0           Minimum CD value
-180.000    0.0000    0.5529    -2.5737
-170.000    0.0788    0.5529    -2.5737
-160.000    0.1575    0.5600    -2.5737
-150.000    0.2227    0.5972    -2.5737
-140.000    0.1782    0.6430    -2.5737
-130.000    0.1429    0.6921    -2.5737
-120.000    0.1081    0.7389    -2.5737
-110.000    0.0717    0.7781    -2.5737
-100.000    0.0348    0.8052    -2.5737
-90.000    0.0000    0.8172    -2.5737
-80.000    -0.0348    0.8052    -2.5737
-70.000    -0.0717    0.7781    -2.5737
-60.000    -0.1081    0.7389    -2.5737
-50.000    -0.1429    0.6921    -2.5737
-40.000    -0.1782    0.6430    -2.5737
-30.000    -0.2227    0.5972    -2.5737
-20.000    -0.1693    0.5743    -2.5737
-10.000    -0.1480    0.5535    -2.9049
-7.000    -0.1077    0.5527    -2.7205
-6.000    -0.0838    0.5525    -2.6597
-5.000    -0.0593    0.5524    -2.6174
-4.000    -0.0340    0.5523    -2.5765
-3.000    -0.0081    0.5522    -2.5502
-2.000    0.0180    0.5522    -2.5555
-1.000    0.0443    0.5520    -2.5737
0.000    0.0706    0.5520    -2.5930
0.440    0.1233    0.5521    -2.6329
0.877    0.1717    0.5524    -2.6731
1.308    0.2152    0.5527    -2.7204
1.730    0.2429    0.5532    -2.7832
2.141    0.2568    0.5543    -2.8454
2.536    0.2743    0.5557    -2.9517
2.915    0.2882    0.5575    -3.0679
3.273    0.2997    0.5598    -3.1885
3.609    0.3093    0.5622    -3.3100
3.921    0.3163    0.5649    -3.4248
4.205    0.3203    0.5679    -3.5285
4.461    0.3249    0.5705    -3.6328
4.687    0.3295    0.5729    -3.7284
4.880    0.3310    0.5753    -3.8077
5.040    0.3320    0.5773    -3.8731
5.166    0.3326    0.5789    -3.9235
5.256    0.3328    0.5801    -3.9588
5.311    0.3329    0.5808    -3.9801
5.329    0.3330    0.5810    -3.9872
5.464    0.3330    0.5812    -3.9925
5.870    0.3329    0.5818    -4.0084
6.543    0.3329    0.5828    -4.0348
7.478    0.3327    0.5841    -4.0707
8.670    0.3317    0.5859    -4.1113
10.110    0.3303    0.5881    -4.1573
11.789    0.3283    0.5907    -4.2063
13.694    0.3245    0.5939    -4.2235
15.813    0.3163    0.5985    -4.0985
18.132    0.3089    0.6038    -3.9150
20.634    0.3009    0.6096    -3.7171
23.302    0.2923    0.6158    -3.5059
26.119    0.2833    0.6223    -3.2830
29.064    0.2739    0.6291    -3.0499
32.119    0.2641    0.6362    -2.8082
35.261    0.2541    0.6434    -2.5737
38.470    0.2460    0.6514    -2.5737
41.724    0.2377    0.6595    -2.5737
45.000    0.2293    0.6676    -2.5737
50.000    0.2041    0.6921    -2.5737
60.000    0.1544    0.7389    -2.5737
70.000    0.1025    0.7781    -2.5737
80.000    0.0497    0.8052    -2.5737
90.000    0.0000    0.8172    -2.5737
100.000    -0.0348    0.8052    -2.5737
110.000    -0.0717    0.7781    -2.5737
120.000    -0.1081    0.7389    -2.5737
130.000    -0.1429    0.6921    -2.5737
140.000    -0.1782    0.6430    -2.5737
150.000    -0.2227    0.5972    -2.5737
160.000    -0.1575    0.5600    -2.5737
170.000    -0.0788    0.5529    -2.5737
180.000    0.0000    0.5529    -2.5737
EOT 6
14.000         Table ID parameter (Reynolds number in millions)
  0           Control setting
 5.329         Stall angle (deg)
  0           Zero lift angle of attack (deg)
  0           Cn slope for zero lift (dimensionless)
  0           Cn at stall value for positive angle of attack
  0           Cn at stall value for negative angle of attack
  0           Angle of attack for minimum CD (deg)
  0           Minimum CD value
-180.000    0.0000    0.5529    -2.5737
-170.000    0.0759    0.5529    -2.5737
-160.000    0.1518    0.5585    -2.5737
-150.000    0.2277    0.5958    -2.5737
-140.000    0.1813    0.6417    -2.5737
-130.000    0.1447    0.6911    -2.5737
-120.000    0.1090    0.7381    -2.5737
-110.000    0.0721    0.7775    -2.5737
-100.000    0.0349    0.8049    -2.5737
-90.000    0.0000    0.8172    -2.5737
-80.000    -0.0349    0.8049    -2.5737
-70.000    -0.0721    0.7775    -2.5737
-60.000    -0.1090    0.7381    -2.5737
-50.000    -0.1447    0.6911    -2.5737
-40.000    -0.1813    0.6417    -2.5737
-30.000    -0.2277    0.5958    -2.5737
-20.000    -0.1666    0.5746    -2.5737
-10.000    -0.1509    0.5534    -2.9109
-9.000    -0.1467    0.5530    -2.8608
-8.000    -0.1306    0.5528    -2.7954
-6.000    -0.0838    0.5525    -2.6591
-5.000    -0.0593    0.5524    -2.6173
-4.000    -0.0340    0.5523    -2.5765
-3.000    -0.0079    0.5522    -2.5503
-2.000    0.0183    0.5521    -2.5556
-1.000    0.0444    0.5520    -2.5738
0.000    0.0708    0.5520    -2.5932
0.440    0.1232    0.5521    -2.6327
0.877    0.1712    0.5524    -2.6732
1.308    0.2160    0.5527    -2.7212
1.730    0.2439    0.5531    -2.7851
2.141    0.2603    0.5542    -2.8618
2.536    0.2767    0.5555    -2.9569
2.915    0.2920    0.5572    -3.0780
3.273    0.3027    0.5595    -3.1981
3.609    0.3115    0.5620    -3.3176
3.921    0.3188    0.5647    -3.4348
4.205    0.3245    0.5674    -3.5483
4.461    0.3296    0.5699    -3.6504
4.687    0.3320    0.5725    -3.7400
4.880    0.3338    0.5749    -3.8216
5.040    0.3346    0.5769    -3.8871
5.166    0.3351    0.5785    -3.9373
5.256    0.3352    0.5797    -3.9723
5.311    0.3353    0.5804    -3.9935
5.329    0.3353    0.5807    -4.0005
5.464    0.3353    0.5809    -4.0056
5.870    0.3351    0.5815    -4.0208
6.543    0.3347    0.5825    -4.0460
7.478    0.3342    0.5839    -4.0805
8.670    0.3333    0.5857    -4.1216
10.110    0.3320    0.5878    -4.1689
11.789    0.3302    0.5904    -4.2201
13.694    0.3277    0.5933    -4.2717
15.813    0.3234    0.5971    -4.2590
18.132    0.3156    0.6025    -4.0562
20.634    0.3073    0.6083    -3.8374
23.302    0.2983    0.6144    -3.6040
26.119    0.2889    0.6210    -3.3576
29.064    0.2791    0.6278    -3.1000
32.119    0.2689    0.6349    -2.8329
35.261    0.2585    0.6422    -2.5737
38.470    0.2500    0.6502    -2.5737
41.724    0.2414    0.6583    -2.5737
45.000    0.2328    0.6664    -2.5737
50.000    0.2067    0.6911    -2.5737
60.000    0.1558    0.7381    -2.5737
70.000    0.1031    0.7775    -2.5737
80.000    0.0499    0.8049    -2.5737
90.000    0.0000    0.8172    -2.5737
100.000    -0.0349    0.8049    -2.5737
110.000    -0.0721    0.7775    -2.5737
120.000    -0.1090    0.7381    -2.5737
130.000    -0.1447    0.6911    -2.5737
140.000    -0.1813    0.6417    -2.5737
150.000    -0.2277    0.5958    -2.5737
160.000    -0.1518    0.5585    -2.5737
170.000    -0.0759    0.5529    -2.5737
180.000    0.0000    0.5529    -2.5737
EOT 7
